   Input file: C:\Users\wdn266\Dropbox\CR\netpathz\ds22.pqi
  Output file: C:\Users\wdn266\Dropbox\CR\netpathz\ds22.pqo
Database file: C:\Program Files (x86)\USGS\Phreeqc Interactive 3.6.2-15100\database\phreeqc.dat

------------------
Reading data base.
------------------

	SOLUTION_MASTER_SPECIES
	SOLUTION_SPECIES
	PHASES
	EXCHANGE_MASTER_SPECIES
	EXCHANGE_SPECIES
	SURFACE_MASTER_SPECIES
	SURFACE_SPECIES
	RATES
	END
------------------------------------
Reading input data for simulation 1.
------------------------------------

	DATABASE C:\Program Files (x86)\USGS\Phreeqc Interactive 3.6.2-15100\database\phreeqc.dat
	SOLUTION_SPREAD
	 Number	 Description	 Units	 Redox	   Temp	    pH	     pe	     Ca	    Mg	     Na	     K	    Cl	   S(6)	   Alkalinity	    Fe	    Al	    F	      Si	    Sr	  N(5)	 N(-3)	    P	 O(0)	 S(-2)	 N(0)	 14C	 3H	 15N(0)	 15N(5)	 15N(-3)	 15N(3)	 Density
	      	            	      	      	       	      	       	  as Ca	 as Mg	  as Na	  as K	 as Cl	 as SO4	 gfw 50.04289	 as Fe	 as Al	 as F	 as SiO2	 as Sr	  as N	  as N	 as P	 as O	  as S	 as N	    	   	       	       	        	       	        
	      1	        DS01	  mg/l	    pe	 22.200	 7.400	  8.068	 10.464	 2.051	  7.240	 3.136	 1.952	  0.790	       37.563	      	      	     	        	      	 0.126	      	     	     	      	     	    	   	       	       	        	       	        
	      2	        DS02	  mg/l	    pe	 22.200	 7.400	  8.068	  9.761	 1.946	  8.764	 2.609	 2.108	  1.093	       36.250	      	      	     	        	      	 0.304	      	     	     	      	     	    	   	       	       	        	       	        
	      3	        DS03	  mg/l	    pe	 22.200	 7.400	  8.068	  9.863	 1.978	  7.047	 2.568	 2.040	  0.876	       46.420	      	      	     	        	      	 0.262	      	     	     	      	     	    	   	       	       	        	       	        
	      4	        DS09	  mg/l	    pe	 22.100	 7.600	  6.903	  9.470	 1.883	  8.291	 2.487	 2.250	  1.001	       34.446	      	      	     	        	      	 0.242	      	     	     	      	     	    	   	       	       	        	       	        
	      5	        DS10	  mg/l	    pe	 22.100	 7.600	  6.903	  9.891	 1.978	  6.608	 3.135	 2.050	  0.906	       36.250	 0.017	 0.270	     	   0.058	      	 0.245	      	     	     	      	     	    	   	       	       	        	       	        
	      6	        DS11	  mg/l	    pe	 22.000	 7.500	  7.100	  6.970	 1.300	 13.446	 1.457	 2.620	  1.405	       27.229	 0.259	 0.854	     	   0.049	      	 0.255	      	     	     	      	     	    	   	       	       	        	       	        
	      7	        DS12	  mg/l	    pe	 21.900	 7.500	  7.502	  9.711	 1.950	  8.642	 2.987	 2.214	  1.192	       35.594	 0.028	 0.399	     	   0.057	      	 0.276	      	     	     	      	     	    	   	       	       	        	       	        
	      8	        DS13	  mg/l	    pe	 22.000	 7.500	  8.068	  9.798	 1.918	  5.722	 2.658	 2.126	  1.129	       38.383	 0.016	 0.018	     	   0.051	      	 0.272	      	     	     	      	     	    	   	       	       	        	       	        
	      9	        DS14	  mg/l	    pe	 22.000	 7.600	  8.215	  9.885	 1.938	  5.737	 2.863	 1.995	  0.852	       39.367	 0.003	 0.005	     	   0.024	      	 0.200	      	     	     	      	     	    	   	       	       	        	       	        
	     10	        DS15	  mg/l	    pe	 22.000	 7.600	  8.351	 10.249	 2.064	  9.245	 2.979	 1.978	  0.946	       38.711	 0.002	 0.001	     	   0.027	      	 0.200	      	     	     	      	     	    	   	       	       	        	       	        
	     11	        DS16	  mg/l	    pe	 22.000	 7.600	  8.431	 10.127	 2.025	  9.151	 2.866	 2.048	  1.002	       39.367	 0.002	 0.004	     	   0.024	      	 0.286	      	     	     	      	     	    	   	       	       	        	       	        
	     12	        DS17	  mg/l	    pe	 21.900	 7.600	  8.546	 10.217	 1.994	 10.322	 2.262	 2.139	  0.755	       42.647	 0.007	 0.167	     	   0.026	      	 0.172	      	     	     	      	     	    	   	       	       	        	       	        
	     13	        DS18	  mg/l	    pe	 21.900	 7.600	  8.558	 10.026	 1.971	  9.198	 2.340	 2.090	  0.800	       37.727	 0.006	 0.156	     	   0.025	      	 0.200	      	     	     	      	     	    	   	       	       	        	       	        
	     14	        DS19	  mg/l	    pe	 21.800	 7.500	  8.554	 10.163	 2.002	  9.382	 2.364	 2.024	  0.882	       38.219	 0.006	 0.159	     	   0.026	      	 0.150	      	     	     	      	     	    	   	       	       	        	       	        
	     15	        DS20	  mg/l	    pe	 21.900	 7.600	  8.593	  9.729	 1.918	 12.107	 1.767	 4.137	  0.846	       39.695	 0.008	 0.193	     	   0.027	      	 0.328	      	     	     	      	     	    	   	       	       	        	       	        
	     16	        DS21	  mg/l	    pe	 22.000	 7.600	  8.615	 10.315	 2.010	  8.684	 2.540	 2.028	  0.873	       39.859	 0.006	 0.185	     	   0.027	      	 0.305	      	     	     	      	     	    	   	       	       	        	       	        
	     17	        DS22	  mg/l	    pe	 22.000	 7.600	  8.414	  9.954	 1.976	 12.647	 1.937	 4.258	  0.843	       28.541	 0.005	 0.156	     	   0.026	      	 0.285	      	     	     	      	     	    	   	       	       	        	       	        
	     18	        DS23	  mg/l	    pe	 22.100	 7.600	  8.732	 10.439	 2.064	  9.154	 2.853	 2.036	  0.853	       41.499	 0.006	 0.175	     	   0.027	      	 0.317	      	     	     	      	     	    	   	       	       	        	       	        
	     19	        DS24	  mg/l	    pe	 22.000	 7.600	  8.758	 10.126	 1.974	  8.424	 2.498	 2.058	  0.847	       37.891	 0.008	 0.170	     	   0.026	      	 0.288	      	     	     	      	     	    	   	       	       	        	       	        
	     20	        DS25	  mg/l	    pe	 22.000	 7.600	  8.414	 10.293	 2.037	  9.263	 3.001	 2.052	  0.859	       37.891	 0.007	 0.197	     	   0.026	      	 0.320	      	     	     	      	     	    	   	       	       	        	       	        
	     21	        US01	  mg/l	    pe	 22.000	 6.100	  8.729	 10.862	 2.109	  7.472	 2.800	 1.919	  0.812	       33.954	      	      	     	        	      	 0.272	      	     	     	      	     	    	   	       	       	        	       	        
	     22	        US02	  mg/l	    pe	 21.900	 7.000	  9.458	 10.779	 2.108	  7.632	 3.437	 1.949	  0.830	       40.023	      	      	     	        	      	 0.078	      	     	     	      	     	    	   	       	       	        	       	        
	     23	        US03	  mg/l	    pe	 21.900	 7.000	  9.254	  9.679	 1.923	  6.409	 3.272	 1.935	  0.837	       41.335	      	      	     	        	      	 0.299	      	     	     	      	     	    	   	       	       	        	       	        
	     24	        US04	  mg/l	    pe	 21.900	 7.100	  9.525	  9.688	 1.910	  6.475	 3.119	 1.987	  0.826	       41.007	      	      	     	        	      	 0.272	      	     	     	      	     	    	   	       	       	        	       	        
	     25	        US05	  mg/l	    pe	 21.900	 7.100	  9.610	  9.921	 1.926	  8.604	 2.384	 2.025	  1.083	       49.865	      	      	     	        	      	 0.360	      	     	     	      	     	    	   	       	       	        	       	        
	     26	        US06	  mg/l	    pe	 21.900	 7.100	  9.683	 10.502	 2.004	  9.508	 3.053	 2.029	  1.162	       38.875	      	      	     	        	      	 0.345	      	     	     	      	     	    	   	       	       	        	       	        
	     27	        US07	  mg/l	    pe	 21.900	 7.100	  9.720	  9.848	 1.919	 10.427	 1.972	 3.048	  0.967	       39.859	      	      	     	        	      	 0.367	      	     	     	      	     	    	   	       	       	        	       	        
	     28	        US08	  mg/l	    pe	 21.900	 7.100	  9.751	 10.164	 2.015	  8.398	 2.767	 1.991	  0.969	       88.575	      	      	     	        	      	 0.343	      	     	     	      	     	    	   	       	       	        	       	        
	     29	        US09	  mg/l	    pe	 21.900	 7.100	  9.715	 10.294	 2.046	  9.522	 2.780	 2.076	  1.044	       34.282	 0.007	 0.004	     	   0.058	      	 0.276	      	     	     	      	     	    	   	       	       	        	       	        
	     30	        US10	  mg/l	    pe	 21.900	 7.100	  9.715	 10.364	 2.067	  8.940	 3.069	 2.043	  0.974	       36.250	 0.003	 0.004	     	   0.057	      	 0.266	      	     	     	      	     	    	   	       	       	        	       	        
	     31	        US11	  mg/l	    pe	 21.900	 7.000	  9.744	  9.111	 1.785	  9.419	 3.147	 2.266	  0.928	       36.250	 0.013	 0.022	     	   0.049	      	 0.338	      	     	     	      	     	    	   	       	       	        	       	        
	     32	        US12	  mg/l	    pe	 21.800	 7.100	  9.790	 10.462	 2.077	  7.061	 3.137	 2.084	  1.089	       36.906	 0.002	 0.002	     	   0.063	      	 0.295	      	     	     	      	     	    	   	       	       	        	       	        
	     33	        US13	  mg/l	    pe	 21.900	 7.000	  9.666	 10.575	 2.123	  9.609	 3.317	 2.060	  1.306	       38.219	 0.010	 0.283	     	   0.061	      	 0.283	      	     	     	      	     	    	   	       	       	        	       	        
	     34	        US14	  mg/l	    pe	 21.900	 7.000	  9.780	 10.596	 2.138	 10.504	 3.204	 2.005	  1.011	       42.483	 0.005	 0.173	     	   0.028	      	 0.354	      	     	     	      	     	    	   	       	       	        	       	        
	     35	        US15	  mg/l	    pe	 21.800	 7.000	  9.819	 10.682	 2.153	  9.959	 3.246	 2.107	  1.093	       40.351	 0.002	 0.001	     	   0.026	      	 0.304	      	     	     	      	     	    	   	       	       	        	       	        
	     36	        US16	  mg/l	    pe	 21.900	 7.000	  9.842	 10.066	 1.996	  8.056	 2.684	 2.021	  0.854	       40.679	 0.005	 0.140	     	   0.026	      	 0.308	      	     	     	      	     	    	   	       	       	        	       	        
	     37	        US17	  mg/l	    pe	 21.800	 7.100	  9.853	 10.781	 2.136	  9.194	 3.429	 1.966	  0.862	       40.843	 0.004	 0.162	     	   0.028	      	 0.259	      	     	     	      	     	    	   	       	       	        	       	        
	     38	        US18	  mg/l	    pe	 21.800	 7.100	  9.854	 10.685	 2.078	  8.780	 2.678	 1.945	  0.805	       41.827	 0.004	 0.175	     	   0.028	      	 0.244	      	     	     	      	     	    	   	       	       	        	       	        
	     39	        US19	  mg/l	    pe	 21.800	 7.000	  9.900	 10.485	 2.075	  9.112	 2.542	 1.955	  0.832	       40.679	 0.004	 0.157	     	   0.028	      	 0.362	      	     	     	      	     	    	   	       	       	        	       	        
	     40	        US20	  mg/l	    pe	 21.800	 7.100	  9.898	 10.761	 2.119	 10.331	 2.733	 1.963	  0.913	       42.319	 0.004	 0.163	     	   0.029	      	 0.236	      	     	     	      	     	    	   	       	       	        	       	        
	     41	        US21	  mg/l	    pe	 21.800	 7.100	  9.897	 10.498	 2.074	 12.315	 2.152	 3.840	  0.898	       41.663	 0.004	 0.168	     	   0.029	      	 0.408	      	     	     	      	     	    	   	       	       	        	       	        
	     42	        US22	  mg/l	    pe	 21.900	 7.000	  9.842	 10.869	 2.124	  8.973	 2.916	 1.935	  0.830	       42.975	 0.007	 0.147	     	   0.028	      	 0.285	      	     	     	      	     	    	   	       	       	        	       	        
	     43	        US23	  mg/l	    pe	 21.900	 7.000	  9.856	 10.979	 2.158	  9.470	 3.069	 1.984	  0.867	       41.499	 0.006	 0.167	     	   0.029	      	 0.369	      	     	     	      	     	    	   	       	       	        	       	        
	     44	        US24	  mg/l	    pe	 21.900	 7.100	  9.863	 10.872	 2.136	  9.337	 3.092	 1.984	  0.871	       40.515	 0.004	 0.171	     	   0.027	      	 0.347	      	     	     	      	     	    	   	       	       	        	       	        
	     45	        US25	  mg/l	    pe	 21.900	 7.100	  9.888	 10.832	 2.164	  9.334	 3.173	 1.957	  0.728	       43.304	 0.004	 0.180	     	   0.027	      	 0.338	      	     	     	      	     	    	   	       	       	        	       	        
	     46	          W0	  mg/l	    pe	 22.400	 5.300	  7.000	  1.835	 0.309	  2.277	 0.447	 2.119	  0.549	        3.773	 0.001	 0.001	     	   0.006	      	 0.029	      	     	     	      	     	    	   	       	       	        	       	        
	     47	          W2	  mg/l	    pe	 22.200	 4.000	  9.356	 10.213	 1.963	  6.635	 2.851	 1.907	  1.110	       40.843	 0.031	 0.073	     	   0.027	      	 0.475	      	     	     	      	     	    	   	       	       	        	       	        
	     48	          W3	  mg/l	    pe	 23.000	 5.700	  9.525	  8.582	 1.320	  3.845	 1.522	 1.551	  2.561	       23.374	 2.594	 2.899	     	   0.015	      	      	      	     	     	      	     	    	   	       	       	        	       	        
	     49	          W5	  mg/l	    pe	 22.300	 6.600	  7.051	 10.565	 1.807	  6.294	 2.437	 2.213	  2.202	       36.168	 0.088	 0.090	     	   0.023	      	 0.211	      	     	     	      	     	    	   	       	       	        	       	        
	     50	          R1	  mg/l	    pe	 23.700	 5.030	 10.520	  0.299	 0.076	  5.169	 0.109	 2.090	  0.660	        0.000	 0.011	 0.292	     	   0.005	      	 0.242	      	     	     	      	     	    	   	       	       	        	       	        
	     51	          R2	  mg/l	    pe	 23.700	 5.030	 10.520	  0.225	 0.045	  2.519	 0.142	 0.831	  0.413	        0.000	      	      	     	        	      	 0.164	      	     	     	      	     	    	   	       	       	        	       	        
	     52	       SPBOX	  mg/l	    pe	 22.300	 7.350	  8.705	  6.015	 1.061	  5.907	 2.441	 1.923	  0.670	       29.443	      	      	     	   0.018	      	 0.581	      	     	     	      	     	    	   	       	       	        	       	        
	     53	        USUP	  mg/l	    pe	 22.600	 7.300	  8.705	  8.475	 1.514	 10.046	 1.824	 2.629	  0.784	       33.954	 0.060	 0.166	     	   0.025	      	 0.366	      	     	     	      	     	    	   	       	       	        	       	        
	INVERSE_MODELING 1 US22-DS22
	    solutions      42       17
	    uncertainty    0.2     0.4
	    phases
	        CO2(g)
	        Fe(OH)3(a)
	        Kaolinite
	        CH2O
	        N2(g)
	        K-feldspar
	        Al(OH)3(a)
	        Biotite
	        Plagioclase
	    tolerance         1e-10
	    mineral_water     true
	PHASES
	CH2O
	    CH2O + H2O = CO2 + 4H+ + 4e-
	    log_k     0
	Biotite
	    KMg3AlSi3O10(OH)2 + 6H+ + 4H2O = Al(OH)4- + 3H4SiO4 + K+ + 3Mg+2
	    log_k     0
	Plagioclase
	    Na0.62Ca0.37Al1.38Si2.625O8 + 5.5 H+ + 2.5H2O = 0.62Na+ + 0.37Ca+2 + 1.38Al+3 + 2.625H4SiO4
	    log_k     0
	END
-------------------------------------------
Beginning of initial solution calculations.
-------------------------------------------

Initial solution 1.	 DS01 

-----------------------------Solution composition------------------------------

	Elements           Molality       Moles

	Alkalinity        7.507e-04   7.507e-04
	Ca                2.611e-04   2.611e-04
	Cl                5.506e-05   5.506e-05
	K                 8.021e-05   8.021e-05
	Mg                8.437e-05   8.437e-05
	N(5)              8.996e-06   8.996e-06
	Na                3.149e-04   3.149e-04
	S(6)              8.224e-06   8.224e-06

----------------------------Description of solution----------------------------

                                       pH  =   7.400    
                                       pe  =   8.068    
      Specific Conductance (µS/cm,  22°C)  = 89
                          Density (g/cm³)  =   0.99778
                               Volume (L)  =   1.00230
                        Activity of water  =   1.000
                 Ionic strength (mol/kgw)  =   1.305e-03
                       Mass of water (kg)  =   1.000e+00
                    Total carbon (mol/kg)  =   8.157e-04
                       Total CO2 (mol/kg)  =   8.157e-04
                         Temperature (°C)  =  22.20
                  Electrical balance (eq)  =   2.549e-04
 Percent error, 100*(Cat-|An|)/(Cat+|An|)  =  13.35
                               Iterations  =   8
                                  Total H  = 1.110132e+02
                                  Total O  = 5.550866e+01

----------------------------Distribution of species----------------------------

                                               Log       Log       Log    mole V
   Species          Molality    Activity  Molality  Activity     Gamma   cm³/mol

   OH-             2.132e-07   2.047e-07    -6.671    -6.689    -0.018     -4.22
   H+              4.136e-08   3.981e-08    -7.383    -7.400    -0.017      0.00
   H2O             5.551e+01   1.000e+00     1.744    -0.000     0.000     18.06
C(4)          8.157e-04
   HCO3-           7.452e-04   7.162e-04    -3.128    -3.145    -0.017     24.47
   CO2             6.649e-05   6.651e-05    -4.177    -4.177     0.000     34.30
   CaHCO3+         2.003e-06   1.926e-06    -5.698    -5.715    -0.017      9.57
   CO3-2           9.326e-07   7.957e-07    -6.030    -6.099    -0.069     -5.49
   MgHCO3+         6.155e-07   5.912e-07    -6.211    -6.228    -0.018      5.40
   CaCO3           2.794e-07   2.795e-07    -6.554    -6.554     0.000    -14.61
   NaHCO3          1.237e-07   1.238e-07    -6.907    -6.907     0.000      1.80
   MgCO3           5.190e-08   5.191e-08    -7.285    -7.285     0.000    -17.09
   NaCO3-          4.046e-09   3.886e-09    -8.393    -8.411    -0.018     -1.29
   (CO2)2          7.390e-11   7.392e-11   -10.131   -10.131     0.000     68.59
Ca            2.611e-04
   Ca+2            2.586e-04   2.206e-04    -3.587    -3.656    -0.069    -18.16
   CaHCO3+         2.003e-06   1.926e-06    -5.698    -5.715    -0.017      9.57
   CaCO3           2.794e-07   2.795e-07    -6.554    -6.554     0.000    -14.61
   CaSO4           2.569e-07   2.569e-07    -6.590    -6.590     0.000      7.39
   CaOH+           9.572e-10   9.194e-10    -9.019    -9.037    -0.018     (0)  
   CaHSO4+         6.731e-14   6.465e-14   -13.172   -13.189    -0.018     (0)  
Cl            5.506e-05
   Cl-             5.506e-05   5.288e-05    -4.259    -4.277    -0.018     17.99
H(0)          1.687e-34
   H2              8.435e-35   8.438e-35   -34.074   -34.074     0.000     28.61
K             8.021e-05
   K+              8.020e-05   7.702e-05    -4.096    -4.113    -0.018      8.92
   KSO4-           3.586e-09   3.447e-09    -8.445    -8.463    -0.017     34.03
Mg            8.437e-05
   Mg+2            8.359e-05   7.137e-05    -4.078    -4.146    -0.069    -21.70
   MgHCO3+         6.155e-07   5.912e-07    -6.211    -6.228    -0.018      5.40
   MgSO4           1.041e-07   1.041e-07    -6.983    -6.983     0.000      5.73
   MgCO3           5.190e-08   5.191e-08    -7.285    -7.285     0.000    -17.09
   MgOH+           5.245e-09   5.043e-09    -8.280    -8.297    -0.017     (0)  
N(5)          8.996e-06
   NO3-            8.996e-06   8.637e-06    -5.046    -5.064    -0.018     29.22
Na            3.149e-04
   Na+             3.148e-04   3.024e-04    -3.502    -3.519    -0.017     -1.62
   NaHCO3          1.237e-07   1.238e-07    -6.907    -6.907     0.000      1.80
   NaSO4-          1.037e-08   9.963e-09    -7.984    -8.002    -0.017     13.85
   NaCO3-          4.046e-09   3.886e-09    -8.393    -8.411    -0.018     -1.29
   NaOH            6.190e-21   6.192e-21   -20.208   -20.208     0.000     (0)  
O(0)          1.433e-25
   O2              7.165e-26   7.167e-26   -25.145   -25.145     0.000     30.17
S(6)          8.224e-06
   SO4-2           7.849e-06   6.691e-06    -5.105    -5.174    -0.069     14.15
   CaSO4           2.569e-07   2.569e-07    -6.590    -6.590     0.000      7.39
   MgSO4           1.041e-07   1.041e-07    -6.983    -6.983     0.000      5.73
   NaSO4-          1.037e-08   9.963e-09    -7.984    -8.002    -0.017     13.85
   KSO4-           3.586e-09   3.447e-09    -8.445    -8.463    -0.017     34.03
   HSO4-           2.538e-11   2.438e-11   -10.595   -10.613    -0.018     40.08
   CaHSO4+         6.731e-14   6.465e-14   -13.172   -13.189    -0.018     (0)  

------------------------------Saturation indices-------------------------------

  Phase               SI** log IAP   log K(295 K,   1 atm)

  Anhydrite        -4.58     -8.83   -4.25  CaSO4
  Aragonite        -1.44     -9.76   -8.32  CaCO3
  Calcite          -1.29     -9.76   -8.46  CaCO3
  CH2O            -66.05    -66.05    0.00  CH2O
  CO2(g)           -2.74     -4.18   -1.43  CO2
  Dolomite         -2.98    -20.00  -17.02  CaMg(CO3)2
  Gypsum           -4.25     -8.83   -4.58  CaSO4:2H2O
  H2(g)           -30.98    -34.07   -3.09  H2
  H2O(g)           -1.58     -0.00    1.58  H2O
  Halite           -9.36     -7.80    1.57  NaCl
  O2(g)           -22.27    -25.14   -2.87  O2
  Sylvite          -9.28     -8.39    0.89  KCl

**For a gas, SI = log10(fugacity). Fugacity = pressure * phi / 1 atm.
  For ideal gases, phi = 1.

Initial solution 2.	 DS02 

-----------------------------Solution composition------------------------------

	Elements           Molality       Moles

	Alkalinity        7.244e-04   7.244e-04
	Ca                2.436e-04   2.436e-04
	Cl                5.946e-05   5.946e-05
	K                 6.673e-05   6.673e-05
	Mg                8.005e-05   8.005e-05
	N(5)              2.171e-05   2.171e-05
	Na                3.812e-04   3.812e-04
	S(6)              1.138e-05   1.138e-05

----------------------------Description of solution----------------------------

                                       pH  =   7.400    
                                       pe  =   8.068    
      Specific Conductance (µS/cm,  22°C)  = 90
                          Density (g/cm³)  =   0.99778
                               Volume (L)  =   1.00230
                        Activity of water  =   1.000
                 Ionic strength (mol/kgw)  =   1.290e-03
                       Mass of water (kg)  =   1.000e+00
                    Total carbon (mol/kg)  =   7.872e-04
                       Total CO2 (mol/kg)  =   7.872e-04
                         Temperature (°C)  =  22.20
                  Electrical balance (eq)  =   2.668e-04
 Percent error, 100*(Cat-|An|)/(Cat+|An|)  =  13.93
                               Iterations  =   8 (16 overall)
                                  Total H  = 1.110132e+02
                                  Total O  = 5.550863e+01

----------------------------Distribution of species----------------------------

                                               Log       Log       Log    mole V
   Species          Molality    Activity  Molality  Activity     Gamma   cm³/mol

   OH-             2.132e-07   2.047e-07    -6.671    -6.689    -0.018     -4.22
   H+              4.135e-08   3.981e-08    -7.384    -7.400    -0.016      0.00
   H2O             5.551e+01   1.000e+00     1.744    -0.000     0.000     18.06
C(4)          7.872e-04
   HCO3-           7.193e-04   6.915e-04    -3.143    -3.160    -0.017     24.47
   CO2             6.420e-05   6.422e-05    -4.192    -4.192     0.000     34.30
   CaHCO3+         1.805e-06   1.736e-06    -5.743    -5.760    -0.017      9.57
   CO3-2           8.996e-07   7.683e-07    -6.046    -6.114    -0.069     -5.49
   MgHCO3+         5.641e-07   5.419e-07    -6.249    -6.266    -0.017      5.40
   CaCO3           2.518e-07   2.519e-07    -6.599    -6.599     0.000    -14.61
   NaHCO3          1.447e-07   1.447e-07    -6.840    -6.840     0.000      1.80
   MgCO3           4.757e-08   4.759e-08    -7.323    -7.323     0.000    -17.09
   NaCO3-          4.728e-09   4.543e-09    -8.325    -8.343    -0.017     -1.29
   (CO2)2          6.889e-11   6.891e-11   -10.162   -10.162     0.000     68.59
Ca            2.436e-04
   Ca+2            2.412e-04   2.059e-04    -3.618    -3.686    -0.069    -18.16
   CaHCO3+         1.805e-06   1.736e-06    -5.743    -5.760    -0.017      9.57
   CaSO4           3.329e-07   3.330e-07    -6.478    -6.478     0.000      7.39
   CaCO3           2.518e-07   2.519e-07    -6.599    -6.599     0.000    -14.61
   CaOH+           8.934e-10   8.583e-10    -9.049    -9.066    -0.017     (0)  
   CaHSO4+         8.721e-14   8.379e-14   -13.059   -13.077    -0.017     (0)  
Cl            5.946e-05
   Cl-             5.946e-05   5.712e-05    -4.226    -4.243    -0.017     17.99
H(0)          1.687e-34
   H2              8.435e-35   8.438e-35   -34.074   -34.074     0.000     28.61
K             6.673e-05
   K+              6.672e-05   6.409e-05    -4.176    -4.193    -0.017      8.92
   KSO4-           4.142e-09   3.982e-09    -8.383    -8.400    -0.017     34.03
Mg            8.005e-05
   Mg+2            7.929e-05   6.777e-05    -4.101    -4.169    -0.068    -21.70
   MgHCO3+         5.641e-07   5.419e-07    -6.249    -6.266    -0.017      5.40
   MgSO4           1.372e-07   1.372e-07    -6.863    -6.863     0.000      5.73
   MgCO3           4.757e-08   4.759e-08    -7.323    -7.323     0.000    -17.09
   MgOH+           4.978e-09   4.788e-09    -8.303    -8.320    -0.017     (0)  
N(5)          2.171e-05
   NO3-            2.171e-05   2.084e-05    -4.663    -4.681    -0.018     29.22
Na            3.812e-04
   Na+             3.811e-04   3.662e-04    -3.419    -3.436    -0.017     -1.62
   NaHCO3          1.447e-07   1.447e-07    -6.840    -6.840     0.000      1.80
   NaSO4-          1.742e-08   1.675e-08    -7.759    -7.776    -0.017     13.85
   NaCO3-          4.728e-09   4.543e-09    -8.325    -8.343    -0.017     -1.29
   NaOH            7.495e-21   7.497e-21   -20.125   -20.125     0.000     (0)  
O(0)          1.433e-25
   O2              7.165e-26   7.167e-26   -25.145   -25.145     0.000     30.17
S(6)          1.138e-05
   SO4-2           1.089e-05   9.289e-06    -4.963    -5.032    -0.069     14.15
   CaSO4           3.329e-07   3.330e-07    -6.478    -6.478     0.000      7.39
   MgSO4           1.372e-07   1.372e-07    -6.863    -6.863     0.000      5.73
   NaSO4-          1.742e-08   1.675e-08    -7.759    -7.776    -0.017     13.85
   KSO4-           4.142e-09   3.982e-09    -8.383    -8.400    -0.017     34.03
   HSO4-           3.523e-11   3.385e-11   -10.453   -10.470    -0.017     40.08
   CaHSO4+         8.721e-14   8.379e-14   -13.059   -13.077    -0.017     (0)  

------------------------------Saturation indices-------------------------------

  Phase               SI** log IAP   log K(295 K,   1 atm)

  Anhydrite        -4.47     -8.72   -4.25  CaSO4
  Aragonite        -1.48     -9.80   -8.32  CaCO3
  Calcite          -1.34     -9.80   -8.46  CaCO3
  CH2O            -66.06    -66.06    0.00  CH2O
  CO2(g)           -2.76     -4.19   -1.43  CO2
  Dolomite         -3.06    -20.08  -17.02  CaMg(CO3)2
  Gypsum           -4.14     -8.72   -4.58  CaSO4:2H2O
  H2(g)           -30.98    -34.07   -3.09  H2
  H2O(g)           -1.58     -0.00    1.58  H2O
  Halite           -9.25     -7.68    1.57  NaCl
  O2(g)           -22.27    -25.14   -2.87  O2
  Sylvite          -9.32     -8.44    0.89  KCl

**For a gas, SI = log10(fugacity). Fugacity = pressure * phi / 1 atm.
  For ideal gases, phi = 1.

Initial solution 3.	 DS03 

-----------------------------Solution composition------------------------------

	Elements           Molality       Moles

	Alkalinity        9.277e-04   9.277e-04
	Ca                2.461e-04   2.461e-04
	Cl                5.755e-05   5.755e-05
	K                 6.568e-05   6.568e-05
	Mg                8.136e-05   8.136e-05
	N(5)              1.871e-05   1.871e-05
	Na                3.065e-04   3.065e-04
	S(6)              9.120e-06   9.120e-06

----------------------------Description of solution----------------------------

                                       pH  =   7.400    
                                       pe  =   8.068    
      Specific Conductance (µS/cm,  22°C)  = 94
                          Density (g/cm³)  =   0.99779
                               Volume (L)  =   1.00230
                        Activity of water  =   1.000
                 Ionic strength (mol/kgw)  =   1.353e-03
                       Mass of water (kg)  =   1.000e+00
                    Total carbon (mol/kg)  =   1.008e-03
                       Total CO2 (mol/kg)  =   1.008e-03
                         Temperature (°C)  =  22.20
                  Electrical balance (eq)  =   4.997e-06
 Percent error, 100*(Cat-|An|)/(Cat+|An|)  =   0.24
                               Iterations  =   7 (23 overall)
                                  Total H  = 1.110134e+02
                                  Total O  = 5.550925e+01

----------------------------Distribution of species----------------------------

                                               Log       Log       Log    mole V
   Species          Molality    Activity  Molality  Activity     Gamma   cm³/mol

   OH-             2.134e-07   2.047e-07    -6.671    -6.689    -0.018     -4.22
   H+              4.139e-08   3.981e-08    -7.383    -7.400    -0.017      0.00
   H2O             5.551e+01   1.000e+00     1.744    -0.000     0.000     18.06
C(4)          1.008e-03
   HCO3-           9.212e-04   8.848e-04    -3.036    -3.053    -0.018     24.47
   CO2             8.214e-05   8.217e-05    -4.085    -4.085     0.000     34.30
   CaHCO3+         2.323e-06   2.232e-06    -5.634    -5.651    -0.017      9.57
   CO3-2           1.155e-06   9.830e-07    -5.937    -6.007    -0.070     -5.49
   MgHCO3+         7.304e-07   7.011e-07    -6.136    -6.154    -0.018      5.40
   CaCO3           3.238e-07   3.239e-07    -6.490    -6.490     0.000    -14.61
   NaHCO3          1.487e-07   1.487e-07    -6.828    -6.828     0.000      1.80
   MgCO3           6.154e-08   6.156e-08    -7.211    -7.211     0.000    -17.09
   NaCO3-          4.864e-09   4.669e-09    -8.313    -8.331    -0.018     -1.29
   (CO2)2          1.128e-10   1.128e-10    -9.948    -9.948     0.000     68.59
Ca            2.461e-04
   Ca+2            2.432e-04   2.069e-04    -3.614    -3.684    -0.070    -18.16
   CaHCO3+         2.323e-06   2.232e-06    -5.634    -5.651    -0.017      9.57
   CaCO3           3.238e-07   3.239e-07    -6.490    -6.490     0.000    -14.61
   CaSO4           2.671e-07   2.672e-07    -6.573    -6.573     0.000      7.39
   CaOH+           8.985e-10   8.624e-10    -9.046    -9.064    -0.018     (0)  
   CaHSO4+         7.005e-14   6.724e-14   -13.155   -13.172    -0.018     (0)  
Cl            5.755e-05
   Cl-             5.755e-05   5.523e-05    -4.240    -4.258    -0.018     17.99
H(0)          1.687e-34
   H2              8.435e-35   8.438e-35   -34.074   -34.074     0.000     28.61
K             6.568e-05
   K+              6.568e-05   6.302e-05    -4.183    -4.200    -0.018      8.92
   KSO4-           3.256e-09   3.127e-09    -8.487    -8.505    -0.018     34.03
Mg            8.136e-05
   Mg+2            8.046e-05   6.851e-05    -4.094    -4.164    -0.070    -21.70
   MgHCO3+         7.304e-07   7.011e-07    -6.136    -6.154    -0.018      5.40
   MgSO4           1.108e-07   1.108e-07    -6.956    -6.955     0.000      5.73
   MgCO3           6.154e-08   6.156e-08    -7.211    -7.211     0.000    -17.09
   MgOH+           5.038e-09   4.841e-09    -8.298    -8.315    -0.017     (0)  
N(5)          1.871e-05
   NO3-            1.871e-05   1.795e-05    -4.728    -4.746    -0.018     29.22
Na            3.065e-04
   Na+             3.064e-04   2.942e-04    -3.514    -3.531    -0.018     -1.62
   NaHCO3          1.487e-07   1.487e-07    -6.828    -6.828     0.000      1.80
   NaSO4-          1.119e-08   1.074e-08    -7.951    -7.969    -0.018     13.86
   NaCO3-          4.864e-09   4.669e-09    -8.313    -8.331    -0.018     -1.29
   NaOH            6.020e-21   6.022e-21   -20.220   -20.220     0.000     (0)  
O(0)          1.433e-25
   O2              7.165e-26   7.167e-26   -25.145   -25.145     0.000     30.17
S(6)          9.120e-06
   SO4-2           8.727e-06   7.419e-06    -5.059    -5.130    -0.071     14.15
   CaSO4           2.671e-07   2.672e-07    -6.573    -6.573     0.000      7.39
   MgSO4           1.108e-07   1.108e-07    -6.956    -6.955     0.000      5.73
   NaSO4-          1.119e-08   1.074e-08    -7.951    -7.969    -0.018     13.86
   KSO4-           3.256e-09   3.127e-09    -8.487    -8.505    -0.018     34.03
   HSO4-           2.817e-11   2.703e-11   -10.550   -10.568    -0.018     40.08
   CaHSO4+         7.005e-14   6.724e-14   -13.155   -13.172    -0.018     (0)  

------------------------------Saturation indices-------------------------------

  Phase               SI** log IAP   log K(295 K,   1 atm)

  Anhydrite        -4.57     -8.81   -4.25  CaSO4
  Aragonite        -1.37     -9.69   -8.32  CaCO3
  Calcite          -1.23     -9.69   -8.46  CaCO3
  CH2O            -65.96    -65.96    0.00  CH2O
  CO2(g)           -2.65     -4.09   -1.43  CO2
  Dolomite         -2.84    -19.86  -17.02  CaMg(CO3)2
  Gypsum           -4.23     -8.81   -4.58  CaSO4:2H2O
  H2(g)           -30.98    -34.07   -3.09  H2
  H2O(g)           -1.58     -0.00    1.58  H2O
  Halite           -9.36     -7.79    1.57  NaCl
  O2(g)           -22.27    -25.14   -2.87  O2
  Sylvite          -9.34     -8.46    0.89  KCl

**For a gas, SI = log10(fugacity). Fugacity = pressure * phi / 1 atm.
  For ideal gases, phi = 1.

Initial solution 4.	 DS09 

-----------------------------Solution composition------------------------------

	Elements           Molality       Moles

	Alkalinity        6.884e-04   6.884e-04
	Ca                2.363e-04   2.363e-04
	Cl                6.347e-05   6.347e-05
	K                 6.361e-05   6.361e-05
	Mg                7.746e-05   7.746e-05
	N(5)              1.728e-05   1.728e-05
	Na                3.607e-04   3.607e-04
	S(6)              1.042e-05   1.042e-05

----------------------------Description of solution----------------------------

                                       pH  =   7.600    
                                       pe  =   6.903    
      Specific Conductance (µS/cm,  22°C)  = 86
                          Density (g/cm³)  =   0.99780
                               Volume (L)  =   1.00227
                        Activity of water  =   1.000
                 Ionic strength (mol/kgw)  =   1.239e-03
                       Mass of water (kg)  =   1.000e+00
                    Total carbon (mol/kg)  =   7.248e-04
                       Total CO2 (mol/kg)  =   7.248e-04
                         Temperature (°C)  =  22.10
                  Electrical balance (eq)  =   2.618e-04
 Percent error, 100*(Cat-|An|)/(Cat+|An|)  =  14.28
                               Iterations  =   8 (31 overall)
                                  Total H  = 1.110131e+02
                                  Total O  = 5.550845e+01

----------------------------Distribution of species----------------------------

                                               Log       Log       Log    mole V
   Species          Molality    Activity  Molality  Activity     Gamma   cm³/mol

   OH-             3.349e-07   3.219e-07    -6.475    -6.492    -0.017     -4.22
   H+              2.607e-08   2.512e-08    -7.584    -7.600    -0.016      0.00
   H2O             5.551e+01   1.000e+00     1.744    -0.000     0.000     18.06
C(4)          7.248e-04
   HCO3-           6.822e-04   6.563e-04    -3.166    -3.183    -0.017     24.46
   CO2             3.850e-05   3.851e-05    -4.415    -4.414     0.000     34.29
   CaHCO3+         1.663e-06   1.600e-06    -5.779    -5.796    -0.017      9.56
   CO3-2           1.346e-06   1.153e-06    -5.871    -5.938    -0.067     -5.51
   MgHCO3+         5.191e-07   4.990e-07    -6.285    -6.302    -0.017      5.40
   CaCO3           3.672e-07   3.673e-07    -6.435    -6.435     0.000    -14.61
   NaHCO3          1.300e-07   1.301e-07    -6.886    -6.886     0.000      1.80
   MgCO3           6.920e-08   6.922e-08    -7.160    -7.160     0.000    -17.09
   NaCO3-          6.679e-09   6.422e-09    -8.175    -8.192    -0.017     -1.31
   (CO2)2          2.469e-11   2.469e-11   -10.608   -10.607     0.000     68.58
Ca            2.363e-04
   Ca+2            2.340e-04   2.004e-04    -3.631    -3.698    -0.067    -18.16
   CaHCO3+         1.663e-06   1.600e-06    -5.779    -5.796    -0.017      9.56
   CaCO3           3.672e-07   3.673e-07    -6.435    -6.435     0.000    -14.61
   CaSO4           2.977e-07   2.978e-07    -6.526    -6.526     0.000      7.39
   CaOH+           1.377e-09   1.324e-09    -8.861    -8.878    -0.017     (0)  
   CaHSO4+         4.910e-14   4.721e-14   -13.309   -13.326    -0.017     (0)  
Cl            6.347e-05
   Cl-             6.347e-05   6.101e-05    -4.197    -4.215    -0.017     17.99
H(0)          1.437e-32
   H2              7.187e-33   7.189e-33   -32.143   -32.143     0.000     28.61
K             6.361e-05
   K+              6.360e-05   6.114e-05    -4.197    -4.214    -0.017      8.92
   KSO4-           3.625e-09   3.487e-09    -8.441    -8.458    -0.017     34.03
Mg            7.746e-05
   Mg+2            7.674e-05   6.578e-05    -4.115    -4.182    -0.067    -21.70
   MgHCO3+         5.191e-07   4.990e-07    -6.285    -6.302    -0.017      5.40
   MgSO4           1.221e-07   1.222e-07    -6.913    -6.913     0.000      5.72
   MgCO3           6.920e-08   6.922e-08    -7.160    -7.160     0.000    -17.09
   MgOH+           7.583e-09   7.298e-09    -8.120    -8.137    -0.017     (0)  
N(5)          1.728e-05
   NO3-            1.728e-05   1.661e-05    -4.762    -4.780    -0.017     29.21
Na            3.607e-04
   Na+             3.605e-04   3.467e-04    -3.443    -3.460    -0.017     -1.63
   NaHCO3          1.300e-07   1.301e-07    -6.886    -6.886     0.000      1.80
   NaSO4-          1.515e-08   1.457e-08    -7.820    -7.836    -0.017     13.85
   NaCO3-          6.679e-09   6.422e-09    -8.175    -8.192    -0.017     -1.31
   NaOH            1.116e-20   1.116e-20   -19.952   -19.952     0.000     (0)  
O(0)          1.830e-29
   O2              9.150e-30   9.153e-30   -29.039   -29.038     0.000     30.17
S(6)          1.042e-05
   SO4-2           9.982e-06   8.543e-06    -5.001    -5.068    -0.068     14.13
   CaSO4           2.977e-07   2.978e-07    -6.526    -6.526     0.000      7.39
   MgSO4           1.221e-07   1.222e-07    -6.913    -6.913     0.000      5.72
   NaSO4-          1.515e-08   1.457e-08    -7.820    -7.836    -0.017     13.85
   KSO4-           3.625e-09   3.487e-09    -8.441    -8.458    -0.017     34.03
   HSO4-           2.038e-11   1.960e-11   -10.691   -10.708    -0.017     40.08
   CaHSO4+         4.910e-14   4.721e-14   -13.309   -13.326    -0.017     (0)  

------------------------------Saturation indices-------------------------------

  Phase               SI** log IAP   log K(295 K,   1 atm)

  Anhydrite        -4.52     -8.77   -4.25  CaSO4
  Aragonite        -1.32     -9.64   -8.32  CaCO3
  Calcite          -1.17     -9.64   -8.46  CaCO3
  CH2O            -62.43    -62.43    0.00  CH2O
  CO2(g)           -2.98     -4.41   -1.43  CO2
  Dolomite         -2.73    -19.76  -17.02  CaMg(CO3)2
  Gypsum           -4.18     -8.77   -4.58  CaSO4:2H2O
  H2(g)           -29.05    -32.14   -3.09  H2
  H2O(g)           -1.58     -0.00    1.58  H2O
  Halite           -9.24     -7.67    1.57  NaCl
  O2(g)           -26.17    -29.04   -2.87  O2
  Sylvite          -9.31     -8.43    0.89  KCl

**For a gas, SI = log10(fugacity). Fugacity = pressure * phi / 1 atm.
  For ideal gases, phi = 1.

Initial solution 5.	 DS10 

-----------------------------Solution composition------------------------------

	Elements           Molality       Moles

	Al                1.001e-05   1.001e-05
	Alkalinity        7.244e-04   7.244e-04
	Ca                2.468e-04   2.468e-04
	Cl                5.783e-05   5.783e-05
	Fe                3.044e-07   3.044e-07
	K                 8.018e-05   8.018e-05
	Mg                8.136e-05   8.136e-05
	N(5)              1.749e-05   1.749e-05
	Na                2.874e-04   2.874e-04
	S(6)              9.432e-06   9.432e-06
	Si                9.654e-07   9.654e-07

----------------------------Description of solution----------------------------

                                       pH  =   7.600    
                                       pe  =   6.903    
      Specific Conductance (µS/cm,  22°C)  = 84
                          Density (g/cm³)  =   0.99780
                               Volume (L)  =   1.00227
                        Activity of water  =   1.000
                 Ionic strength (mol/kgw)  =   1.238e-03
                       Mass of water (kg)  =   1.000e+00
                    Total carbon (mol/kg)  =   7.205e-04
                       Total CO2 (mol/kg)  =   7.205e-04
                         Temperature (°C)  =  22.10
                  Electrical balance (eq)  =   2.357e-04
 Percent error, 100*(Cat-|An|)/(Cat+|An|)  =  13.06
                               Iterations  =   8 (39 overall)
                                  Total H  = 1.110132e+02
                                  Total O  = 5.550847e+01

----------------------------Distribution of species----------------------------

                                               Log       Log       Log    mole V
   Species          Molality    Activity  Molality  Activity     Gamma   cm³/mol

   OH-             3.349e-07   3.219e-07    -6.475    -6.492    -0.017     -4.22
   H+              2.607e-08   2.512e-08    -7.584    -7.600    -0.016      0.00
   H2O             5.551e+01   1.000e+00     1.744    -0.000     0.000     18.06
Al            1.001e-05
   Al(OH)4-        9.848e-06   9.470e-06    -5.007    -5.024    -0.017     (0)  
   Al(OH)3         1.309e-07   1.310e-07    -6.883    -6.883     0.000     (0)  
   Al(OH)2+        2.885e-08   2.776e-08    -7.540    -7.557    -0.017     (0)  
   AlOH+2          1.344e-10   1.151e-10    -9.872    -9.939    -0.067    -27.64
   Al+3            4.920e-13   3.519e-13   -12.308   -12.454    -0.146    -42.06
   AlSO4+          8.600e-15   8.270e-15   -14.065   -14.082    -0.017     (0)  
   Al(SO4)2-       2.071e-18   1.992e-18   -17.684   -17.701    -0.017     (0)  
   AlHSO4+2        2.103e-23   1.797e-23   -22.677   -22.745    -0.068     (0)  
C(4)          7.205e-04
   HCO3-           6.780e-04   6.523e-04    -3.169    -3.186    -0.017     24.46
   CO2             3.826e-05   3.828e-05    -4.417    -4.417     0.000     34.29
   CaHCO3+         1.727e-06   1.662e-06    -5.763    -5.779    -0.017      9.56
   CO3-2           1.338e-06   1.146e-06    -5.874    -5.941    -0.067     -5.51
   MgHCO3+         5.421e-07   5.212e-07    -6.266    -6.283    -0.017      5.40
   CaCO3           3.813e-07   3.814e-07    -6.419    -6.419     0.000    -14.61
   NaHCO3          1.030e-07   1.031e-07    -6.987    -6.987     0.000      1.80
   MgCO3           7.227e-08   7.229e-08    -7.141    -7.141     0.000    -17.09
   NaCO3-          5.291e-09   5.088e-09    -8.276    -8.293    -0.017     -1.31
   (CO2)2          2.439e-11   2.440e-11   -10.613   -10.613     0.000     68.58
   FeHCO3+         2.181e-12   2.097e-12   -11.661   -11.678    -0.017     (0)  
   FeCO3           8.835e-13   8.837e-13   -12.054   -12.054     0.000     (0)  
Ca            2.468e-04
   Ca+2            2.444e-04   2.093e-04    -3.612    -3.679    -0.067    -18.16
   CaHCO3+         1.727e-06   1.662e-06    -5.763    -5.779    -0.017      9.56
   CaCO3           3.813e-07   3.814e-07    -6.419    -6.419     0.000    -14.61
   CaSO4           2.810e-07   2.811e-07    -6.551    -6.551     0.000      7.39
   CaOH+           1.438e-09   1.383e-09    -8.842    -8.859    -0.017     (0)  
   CaHSO4+         4.636e-14   4.457e-14   -13.334   -13.351    -0.017     (0)  
Cl            5.783e-05
   Cl-             5.783e-05   5.559e-05    -4.238    -4.255    -0.017     17.99
   FeCl+           2.565e-15   2.467e-15   -14.591   -14.608    -0.017     (0)  
   FeCl+2          3.738e-20   3.200e-20   -19.427   -19.495    -0.068     (0)  
   FeCl2+          9.064e-24   8.718e-24   -23.043   -23.060    -0.017     (0)  
   FeCl3           4.845e-29   4.847e-29   -28.315   -28.315     0.000     (0)  
Fe(2)         4.093e-11
   Fe+2            3.749e-11   3.214e-11   -10.426   -10.493    -0.067    -22.31
   FeHCO3+         2.181e-12   2.097e-12   -11.661   -11.678    -0.017     (0)  
   FeCO3           8.835e-13   8.837e-13   -12.054   -12.054     0.000     (0)  
   FeOH+           3.380e-13   3.251e-13   -12.471   -12.488    -0.017     (0)  
   FeSO4           4.182e-14   4.183e-14   -13.379   -13.379     0.000     22.13
   FeCl+           2.565e-15   2.467e-15   -14.591   -14.608    -0.017     (0)  
   Fe(OH)2         8.537e-17   8.539e-17   -16.069   -16.069     0.000     (0)  
   Fe(OH)3-        1.276e-19   1.227e-19   -18.894   -18.911    -0.017     (0)  
   FeHSO4+         7.119e-21   6.844e-21   -20.148   -20.165    -0.017     (0)  
Fe(3)         3.044e-07
   Fe(OH)3         2.408e-07   2.409e-07    -6.618    -6.618     0.000     (0)  
   Fe(OH)2+        5.547e-08   5.337e-08    -7.256    -7.273    -0.017     (0)  
   Fe(OH)4-        8.082e-09   7.775e-09    -8.093    -8.109    -0.017     (0)  
   FeOH+2          5.285e-12   4.524e-12   -11.277   -11.344    -0.068     (0)  
   Fe+3            2.924e-17   2.091e-17   -16.534   -16.680    -0.146     (0)  
   FeSO4+          1.725e-18   1.659e-18   -17.763   -17.780    -0.017     (0)  
   FeCl+2          3.738e-20   3.200e-20   -19.427   -19.495    -0.068     (0)  
   Fe2(OH)2+4      1.166e-21   6.217e-22   -20.933   -21.206    -0.273     (0)  
   Fe(SO4)2-       2.881e-22   2.770e-22   -21.540   -21.557    -0.017     (0)  
   FeCl2+          9.064e-24   8.718e-24   -23.043   -23.060    -0.017     (0)  
   FeHSO4+2        1.309e-25   1.119e-25   -24.883   -24.951    -0.068     (0)  
   Fe3(OH)4+5      2.425e-26   9.083e-27   -25.615   -26.042    -0.426     (0)  
   FeCl3           4.845e-29   4.847e-29   -28.315   -28.315     0.000     (0)  
H(0)          1.437e-32
   H2              7.187e-33   7.189e-33   -32.143   -32.143     0.000     28.61
K             8.018e-05
   K+              8.018e-05   7.707e-05    -4.096    -4.113    -0.017      8.92
   KSO4-           4.129e-09   3.973e-09    -8.384    -8.401    -0.017     34.03
Mg            8.136e-05
   Mg+2            8.063e-05   6.911e-05    -4.094    -4.160    -0.067    -21.70
   MgHCO3+         5.421e-07   5.212e-07    -6.266    -6.283    -0.017      5.40
   MgSO4           1.160e-07   1.160e-07    -6.936    -6.936     0.000      5.72
   MgCO3           7.227e-08   7.229e-08    -7.141    -7.141     0.000    -17.09
   MgOH+           7.967e-09   7.668e-09    -8.099    -8.115    -0.017     (0)  
N(5)          1.749e-05
   NO3-            1.749e-05   1.681e-05    -4.757    -4.774    -0.017     29.21
Na            2.874e-04
   Na+             2.873e-04   2.763e-04    -3.542    -3.559    -0.017     -1.63
   NaHCO3          1.030e-07   1.031e-07    -6.987    -6.987     0.000      1.80
   NaSO4-          1.091e-08   1.050e-08    -7.962    -7.979    -0.017     13.85
   NaCO3-          5.291e-09   5.088e-09    -8.276    -8.293    -0.017     -1.31
   NaOH            8.894e-21   8.896e-21   -20.051   -20.051     0.000     (0)  
O(0)          1.830e-29
   O2              9.150e-30   9.153e-30   -29.039   -29.038     0.000     30.17
S(6)          9.432e-06
   SO4-2           9.020e-06   7.720e-06    -5.045    -5.112    -0.068     14.13
   CaSO4           2.810e-07   2.811e-07    -6.551    -6.551     0.000      7.39
   MgSO4           1.160e-07   1.160e-07    -6.936    -6.936     0.000      5.72
   NaSO4-          1.091e-08   1.050e-08    -7.962    -7.979    -0.017     13.85
   KSO4-           4.129e-09   3.973e-09    -8.384    -8.401    -0.017     34.03
   HSO4-           1.842e-11   1.771e-11   -10.735   -10.752    -0.017     40.08
   CaHSO4+         4.636e-14   4.457e-14   -13.334   -13.351    -0.017     (0)  
   FeSO4           4.182e-14   4.183e-14   -13.379   -13.379     0.000     22.13
   AlSO4+          8.600e-15   8.270e-15   -14.065   -14.082    -0.017     (0)  
   Al(SO4)2-       2.071e-18   1.992e-18   -17.684   -17.701    -0.017     (0)  
   FeSO4+          1.725e-18   1.659e-18   -17.763   -17.780    -0.017     (0)  
   FeHSO4+         7.119e-21   6.844e-21   -20.148   -20.165    -0.017     (0)  
   Fe(SO4)2-       2.881e-22   2.770e-22   -21.540   -21.557    -0.017     (0)  
   AlHSO4+2        2.103e-23   1.797e-23   -22.677   -22.745    -0.068     (0)  
   FeHSO4+2        1.309e-25   1.119e-25   -24.883   -24.951    -0.068     (0)  
Si            9.654e-07
   H4SiO4          9.601e-07   9.604e-07    -6.018    -6.018     0.000     52.33
   H3SiO4-         5.291e-09   5.087e-09    -8.276    -8.294    -0.017     27.90
   H2SiO4-2        1.327e-14   1.137e-14   -13.877   -13.944    -0.067     (0)  

------------------------------Saturation indices-------------------------------

  Phase               SI** log IAP   log K(295 K,   1 atm)

  Al(OH)3(a)       -0.64     10.35   10.99  Al(OH)3
  Albite           -8.45    -26.63  -18.19  NaAlSi3O8
  Alunite          -5.06     -6.10   -1.04  KAl3(SO4)2(OH)6
  Anhydrite        -4.55     -8.79   -4.25  CaSO4
  Anorthite        -5.96    -25.76  -19.80  CaAl2Si2O8
  Aragonite        -1.30     -9.62   -8.32  CaCO3
  Biotite           5.93      5.93    0.00  KMg3AlSi3O10(OH)2
  Ca-Montmorillonite  -4.15    -49.60  -45.45  Ca0.165Al2.33Si3.67O10(OH)2
  Calcite          -1.16     -9.62   -8.46  CaCO3
  CH2O            -62.43    -62.43    0.00  CH2O
  Chalcedony       -2.43     -6.02   -3.59  SiO2
  Chlorite(14A)   -11.63     57.84   69.47  Mg5Al2Si3O10(OH)8
  Chrysotile      -11.48     21.08   32.56  Mg3Si2O5(OH)4
  CO2(g)           -2.98     -4.42   -1.43  CO2
  Dolomite         -2.70    -19.72  -17.02  CaMg(CO3)2
  Fe(OH)3(a)        1.23      6.12    4.89  Fe(OH)3
  Gibbsite          2.07     10.35    8.27  Al(OH)3
  Goethite          7.02      6.12   -0.90  FeOOH
  Gypsum           -4.21     -8.79   -4.58  CaSO4:2H2O
  H2(g)           -29.05    -32.14   -3.09  H2
  H2O(g)           -1.58     -0.00    1.58  H2O
  Halite           -9.38     -7.81    1.57  NaCl
  Hematite         16.03     12.24   -3.79  Fe2O3
  Illite           -4.58    -45.24  -40.66  K0.6Mg0.25Al2.3Si3.5O10(OH)2
  Jarosite-K       -9.79    -18.78   -8.98  KFe3(SO4)2(OH)6
  K-feldspar       -6.39    -27.19  -20.79  KAlSi3O8
  K-mica            3.34     16.47   13.13  KAl3Si3O10(OH)2
  Kaolinite         0.97      8.66    7.69  Al2Si2O5(OH)4
  Melanterite     -13.36    -15.61   -2.24  FeSO4:7H2O
  O2(g)           -26.17    -29.04   -2.87  O2
  Plagioclase       5.25      5.25    0.00  Na0.62Ca0.37Al1.38Si2.625O8
  Quartz           -1.99     -6.02   -4.02  SiO2
  Sepiolite       -11.81      4.03   15.84  Mg2Si3O7.5OH:3H2O
  Sepiolite(d)    -14.63      4.03   18.66  Mg2Si3O7.5OH:3H2O
  Siderite         -5.56    -16.43  -10.87  FeCO3
  SiO2(a)          -3.28     -6.02   -2.74  SiO2
  Sylvite          -9.25     -8.37    0.89  KCl
  Talc            -12.68      9.05   21.73  Mg3Si4O10(OH)2

**For a gas, SI = log10(fugacity). Fugacity = pressure * phi / 1 atm.
  For ideal gases, phi = 1.

Initial solution 6.	 DS11 

-----------------------------Solution composition------------------------------

	Elements           Molality       Moles

	Al                3.165e-05   3.165e-05
	Alkalinity        5.441e-04   5.441e-04
	Ca                1.739e-04   1.739e-04
	Cl                7.390e-05   7.390e-05
	Fe                4.638e-06   4.638e-06
	K                 3.726e-05   3.726e-05
	Mg                5.347e-05   5.347e-05
	N(5)              1.821e-05   1.821e-05
	Na                5.849e-04   5.849e-04
	S(6)              1.463e-05   1.463e-05
	Si                8.156e-07   8.156e-07

----------------------------Description of solution----------------------------

                                       pH  =   7.500    
                                       pe  =   7.100    
      Specific Conductance (µS/cm,  22°C)  = 76
                          Density (g/cm³)  =   0.99782
                               Volume (L)  =   1.00224
                        Activity of water  =   1.000
                 Ionic strength (mol/kgw)  =   1.061e-03
                       Mass of water (kg)  =   1.000e+00
                    Total carbon (mol/kg)  =   4.430e-04
                       Total CO2 (mol/kg)  =   4.430e-04
                         Temperature (°C)  =  22.00
                  Electrical balance (eq)  =   5.110e-04
 Percent error, 100*(Cat-|An|)/(Cat+|An|)  =  31.15
                               Iterations  =   8 (47 overall)
                                  Total H  = 1.110130e+02
                                  Total O  = 5.550777e+01

----------------------------Distribution of species----------------------------

                                               Log       Log       Log    mole V
   Species          Molality    Activity  Molality  Activity     Gamma   cm³/mol

   OH-             2.632e-07   2.537e-07    -6.580    -6.596    -0.016     -4.23
   H+              3.274e-08   3.162e-08    -7.485    -7.500    -0.015      0.00
   H2O             5.551e+01   1.000e+00     1.744    -0.000     0.000     18.06
Al            3.165e-05
   Al(OH)4-        3.099e-05   2.988e-05    -4.509    -4.525    -0.016     (0)  
   Al(OH)3         5.208e-07   5.209e-07    -6.283    -6.283     0.000     (0)  
   Al(OH)2+        1.452e-07   1.400e-07    -6.838    -6.854    -0.016     (0)  
   AlOH+2          8.518e-10   7.376e-10    -9.070    -9.132    -0.063    -27.65
   Al+3            3.906e-12   2.858e-12   -11.408   -11.544    -0.136    -42.07
   AlSO4+          1.103e-13   1.064e-13   -12.957   -12.973    -0.016     (0)  
   Al(SO4)2-       4.212e-17   4.061e-17   -16.376   -16.391    -0.016     (0)  
   AlHSO4+2        3.365e-22   2.908e-22   -21.473   -21.536    -0.063     (0)  
C(4)          4.430e-04
   HCO3-           4.117e-04   3.972e-04    -3.385    -3.401    -0.016     24.45
   CO2             2.937e-05   2.938e-05    -4.532    -4.532     0.000     34.29
   CaHCO3+         7.479e-07   7.216e-07    -6.126    -6.142    -0.016      9.56
   CO3-2           6.387e-07   5.531e-07    -6.195    -6.257    -0.063     -5.53
   MgHCO3+         2.191e-07   2.112e-07    -6.659    -6.675    -0.016      5.39
   CaCO3           1.312e-07   1.312e-07    -6.882    -6.882     0.000    -14.61
   NaHCO3          1.281e-07   1.281e-07    -6.892    -6.892     0.000      1.80
   MgCO3           2.319e-08   2.319e-08    -7.635    -7.635     0.000    -17.09
   NaCO3-          5.170e-09   4.984e-09    -8.287    -8.302    -0.016     -1.32
   FeHCO3+         2.503e-11   2.414e-11   -10.601   -10.617    -0.016     (0)  
   (CO2)2          1.432e-11   1.432e-11   -10.844   -10.844     0.000     68.57
   FeCO3           8.061e-12   8.063e-12   -11.094   -11.094     0.000     (0)  
Ca            1.739e-04
   Ca+2            1.727e-04   1.495e-04    -3.763    -3.825    -0.063    -18.17
   CaHCO3+         7.479e-07   7.216e-07    -6.126    -6.142    -0.016      9.56
   CaSO4           3.182e-07   3.182e-07    -6.497    -6.497     0.000      7.38
   CaCO3           1.312e-07   1.312e-07    -6.882    -6.882     0.000    -14.61
   CaOH+           8.139e-10   7.848e-10    -9.089    -9.105    -0.016     (0)  
   CaHSO4+         6.579e-14   6.344e-14   -13.182   -13.198    -0.016     (0)  
Cl            7.390e-05
   Cl-             7.390e-05   7.125e-05    -4.131    -4.147    -0.016     17.98
   FeCl+           6.199e-14   5.977e-14   -13.208   -13.224    -0.016     (0)  
   FeCl+2          1.398e-18   1.210e-18   -17.855   -17.917    -0.063     (0)  
   FeCl2+          4.394e-22   4.238e-22   -21.357   -21.373    -0.016     (0)  
   FeCl3           3.019e-27   3.019e-27   -26.520   -26.520     0.000     (0)  
Fe(2)         7.406e-10
   Fe+2            7.012e-10   6.077e-10    -9.154    -9.216    -0.062    -22.32
   FeHCO3+         2.503e-11   2.414e-11   -10.601   -10.617    -0.016     (0)  
   FeCO3           8.061e-12   8.063e-12   -11.094   -11.094     0.000     (0)  
   FeOH+           5.024e-12   4.846e-12   -11.299   -11.315    -0.016     (0)  
   FeSO4           1.251e-12   1.252e-12   -11.903   -11.902     0.000     22.25
   FeCl+           6.199e-14   5.977e-14   -13.208   -13.224    -0.016     (0)  
   Fe(OH)2         1.002e-15   1.002e-15   -14.999   -14.999     0.000     (0)  
   Fe(OH)3-        1.185e-18   1.143e-18   -17.926   -17.942    -0.016     (0)  
   FeHSO4+         2.674e-19   2.578e-19   -18.573   -18.589    -0.016     (0)  
Fe(3)         4.637e-06
   Fe(OH)3         3.521e-06   3.522e-06    -5.453    -5.453     0.000     (0)  
   Fe(OH)2+        1.023e-06   9.866e-07    -5.990    -6.006    -0.016     (0)  
   Fe(OH)4-        9.322e-08   8.992e-08    -7.031    -7.046    -0.016     (0)  
   FeOH+2          1.221e-10   1.057e-10    -9.913    -9.976    -0.063     (0)  
   Fe+3            8.458e-16   6.188e-16   -15.073   -15.208    -0.136     (0)  
   FeSO4+          8.054e-17   7.769e-17   -16.094   -16.110    -0.016     (0)  
   FeCl+2          1.398e-18   1.210e-18   -17.855   -17.917    -0.063     (0)  
   Fe2(OH)2+4      6.111e-19   3.408e-19   -18.214   -18.467    -0.254     (0)  
   Fe(SO4)2-       2.133e-20   2.056e-20   -19.671   -19.687    -0.016     (0)  
   FeCl2+          4.394e-22   4.238e-22   -21.357   -21.373    -0.016     (0)  
   Fe3(OH)4+5      2.314e-22   9.293e-23   -21.636   -22.032    -0.396     (0)  
   FeHSO4+2        7.630e-24   6.594e-24   -23.117   -23.181    -0.063     (0)  
   FeCl3           3.019e-27   3.019e-27   -26.520   -26.520     0.000     (0)  
H(0)          9.205e-33
   H2              4.603e-33   4.604e-33   -32.337   -32.337     0.000     28.61
K             3.726e-05
   K+              3.726e-05   3.592e-05    -4.429    -4.445    -0.016      8.91
   KSO4-           3.038e-09   2.931e-09    -8.517    -8.533    -0.016     34.03
Mg            5.347e-05
   Mg+2            5.311e-05   4.602e-05    -4.275    -4.337    -0.062    -21.71
   MgHCO3+         2.191e-07   2.112e-07    -6.659    -6.675    -0.016      5.39
   MgSO4           1.221e-07   1.222e-07    -6.913    -6.913     0.000      5.72
   MgCO3           2.319e-08   2.319e-08    -7.635    -7.635     0.000    -17.09
   MgOH+           4.164e-09   4.018e-09    -8.380    -8.396    -0.015     (0)  
N(5)          1.821e-05
   NO3-            1.821e-05   1.755e-05    -4.740    -4.756    -0.016     29.19
Na            5.849e-04
   Na+             5.847e-04   5.639e-04    -3.233    -3.249    -0.016     -1.64
   NaHCO3          1.281e-07   1.281e-07    -6.892    -6.892     0.000      1.80
   NaSO4-          3.519e-08   3.394e-08    -7.454    -7.469    -0.016     13.83
   NaCO3-          5.170e-09   4.984e-09    -8.287    -8.302    -0.016     -1.32
   NaOH            1.430e-20   1.431e-20   -19.845   -19.844     0.000     (0)  
O(0)          4.137e-29
   O2              2.068e-29   2.069e-29   -28.684   -28.684     0.000     30.16
S(6)          1.463e-05
   SO4-2           1.415e-05   1.224e-05    -4.849    -4.912    -0.063     14.11
   CaSO4           3.182e-07   3.182e-07    -6.497    -6.497     0.000      7.38
   MgSO4           1.221e-07   1.222e-07    -6.913    -6.913     0.000      5.72
   NaSO4-          3.519e-08   3.394e-08    -7.454    -7.469    -0.016     13.83
   KSO4-           3.038e-09   2.931e-09    -8.517    -8.533    -0.016     34.03
   HSO4-           3.660e-11   3.528e-11   -10.437   -10.452    -0.016     40.07
   FeSO4           1.251e-12   1.252e-12   -11.903   -11.902     0.000     22.25
   AlSO4+          1.103e-13   1.064e-13   -12.957   -12.973    -0.016     (0)  
   CaHSO4+         6.579e-14   6.344e-14   -13.182   -13.198    -0.016     (0)  
   FeSO4+          8.054e-17   7.769e-17   -16.094   -16.110    -0.016     (0)  
   Al(SO4)2-       4.212e-17   4.061e-17   -16.376   -16.391    -0.016     (0)  
   FeHSO4+         2.674e-19   2.578e-19   -18.573   -18.589    -0.016     (0)  
   Fe(SO4)2-       2.133e-20   2.056e-20   -19.671   -19.687    -0.016     (0)  
   AlHSO4+2        3.365e-22   2.908e-22   -21.473   -21.536    -0.063     (0)  
   FeHSO4+2        7.630e-24   6.594e-24   -23.117   -23.181    -0.063     (0)  
Si            8.156e-07
   H4SiO4          8.120e-07   8.122e-07    -6.090    -6.090     0.000     52.34
   H3SiO4-         3.532e-09   3.405e-09    -8.452    -8.468    -0.016     27.90
   H2SiO4-2        6.933e-15   6.003e-15   -14.159   -14.222    -0.063     (0)  

------------------------------Saturation indices-------------------------------

  Phase               SI** log IAP   log K(295 K,   1 atm)

  Al(OH)3(a)       -0.04     10.96   11.00  Al(OH)3
  Albite           -7.85    -26.04  -18.19  NaAlSi3O8
  Alunite          -2.88     -3.90   -1.03  KAl3(SO4)2(OH)6
  Anhydrite        -4.49     -8.74   -4.24  CaSO4
  Anorthite        -5.25    -25.06  -19.80  CaAl2Si2O8
  Aragonite        -1.76    -10.08   -8.32  CaCO3
  Biotite           4.75      4.75    0.00  KMg3AlSi3O10(OH)2
  Ca-Montmorillonite  -3.06    -48.52  -45.46  Ca0.165Al2.33Si3.67O10(OH)2
  Calcite          -1.62    -10.08   -8.46  CaCO3
  CH2O            -62.93    -62.93    0.00  CH2O
  Chalcedony       -2.50     -6.09   -3.59  SiO2
  Chlorite(14A)   -12.55     56.96   69.51  Mg5Al2Si3O10(OH)8
  Chrysotile      -12.77     19.81   32.58  Mg3Si2O5(OH)4
  CO2(g)           -3.10     -4.53   -1.43  CO2
  Dolomite         -3.66    -20.68  -17.02  CaMg(CO3)2
  Fe(OH)3(a)        2.40      7.29    4.89  Fe(OH)3
  Gibbsite          2.68     10.96    8.28  Al(OH)3
  Goethite          8.18      7.29   -0.89  FeOOH
  Gypsum           -4.15     -8.74   -4.58  CaSO4:2H2O
  H2(g)           -29.24    -32.34   -3.09  H2
  H2O(g)           -1.58     -0.00    1.58  H2O
  Halite           -8.96     -7.40    1.57  NaCl
  Hematite         18.36     14.58   -3.78  Fe2O3
  Illite           -3.80    -44.47  -40.67  K0.6Mg0.25Al2.3Si3.5O10(OH)2
  Jarosite-K       -5.92    -14.89   -8.98  KFe3(SO4)2(OH)6
  K-feldspar       -6.44    -27.24  -20.80  KAlSi3O8
  K-mica            4.51     17.65   13.15  KAl3Si3O10(OH)2
  Kaolinite         2.03      9.73    7.70  Al2Si2O5(OH)4
  Melanterite     -11.88    -14.13   -2.25  FeSO4:7H2O
  O2(g)           -25.81    -28.68   -2.87  O2
  Plagioclase       5.90      5.90    0.00  Na0.62Ca0.37Al1.38Si2.625O8
  Quartz           -2.07     -6.09   -4.03  SiO2
  Sepiolite       -12.78      3.05   15.84  Mg2Si3O7.5OH:3H2O
  Sepiolite(d)    -15.61      3.05   18.66  Mg2Si3O7.5OH:3H2O
  Siderite         -4.60    -15.47  -10.87  FeCO3
  SiO2(a)          -3.35     -6.09   -2.74  SiO2
  Sylvite          -9.48     -8.59    0.88  KCl
  Talc            -14.12      7.63   21.74  Mg3Si4O10(OH)2

**For a gas, SI = log10(fugacity). Fugacity = pressure * phi / 1 atm.
  For ideal gases, phi = 1.

Initial solution 7.	 DS12 

-----------------------------Solution composition------------------------------

	Elements           Molality       Moles

	Al                1.479e-05   1.479e-05
	Alkalinity        7.113e-04   7.113e-04
	Ca                2.423e-04   2.423e-04
	Cl                6.245e-05   6.245e-05
	Fe                5.014e-07   5.014e-07
	K                 7.639e-05   7.639e-05
	Mg                8.021e-05   8.021e-05
	N(5)              1.971e-05   1.971e-05
	Na                3.759e-04   3.759e-04
	S(6)              1.241e-05   1.241e-05
	Si                9.487e-07   9.487e-07

----------------------------Description of solution----------------------------

                                       pH  =   7.500    
                                       pe  =   7.502    
      Specific Conductance (µS/cm,  22°C)  = 87
                          Density (g/cm³)  =   0.99785
                               Volume (L)  =   1.00223
                        Activity of water  =   1.000
                 Ionic strength (mol/kgw)  =   1.264e-03
                       Mass of water (kg)  =   1.000e+00
                    Total carbon (mol/kg)  =   6.966e-04
                       Total CO2 (mol/kg)  =   6.966e-04
                         Temperature (°C)  =  21.90
                  Electrical balance (eq)  =   3.239e-04
 Percent error, 100*(Cat-|An|)/(Cat+|An|)  =  17.39
                               Iterations  =   8 (55 overall)
                                  Total H  = 1.110131e+02
                                  Total O  = 5.550843e+01

----------------------------Distribution of species----------------------------

                                               Log       Log       Log    mole V
   Species          Molality    Activity  Molality  Activity     Gamma   cm³/mol

   OH-             2.620e-07   2.517e-07    -6.582    -6.599    -0.017     -4.23
   H+              3.283e-08   3.162e-08    -7.484    -7.500    -0.016      0.00
   H2O             5.551e+01   1.000e+00     1.744    -0.000     0.000     18.06
Al            1.479e-05
   Al(OH)4-        1.448e-05   1.392e-05    -4.839    -4.856    -0.017     (0)  
   Al(OH)3         2.428e-07   2.429e-07    -6.615    -6.615     0.000     (0)  
   Al(OH)2+        6.843e-08   6.580e-08    -7.165    -7.182    -0.017     (0)  
   AlOH+2          4.089e-10   3.498e-10    -9.388    -9.456    -0.068    -27.63
   Al+3            1.913e-12   1.364e-12   -11.718   -11.865    -0.147    -42.05
   AlSO4+          4.373e-14   4.203e-14   -13.359   -13.376    -0.017     (0)  
   Al(SO4)2-       1.383e-17   1.329e-17   -16.859   -16.876    -0.017     (0)  
   AlHSO4+2        1.346e-22   1.148e-22   -21.871   -21.940    -0.069     (0)  
C(4)          6.966e-04
   HCO3-           6.470e-04   6.222e-04    -3.189    -3.206    -0.017     24.45
   CO2             4.608e-05   4.609e-05    -4.337    -4.336     0.000     34.28
   CaHCO3+         1.610e-06   1.549e-06    -5.793    -5.810    -0.017      9.55
   CO3-2           1.011e-06   8.645e-07    -5.995    -6.063    -0.068     -5.52
   MgHCO3+         5.088e-07   4.890e-07    -6.293    -6.311    -0.017      5.39
   CaCO3           2.810e-07   2.811e-07    -6.551    -6.551     0.000    -14.61
   NaHCO3          1.286e-07   1.287e-07    -6.891    -6.891     0.000      1.80
   MgCO3           5.351e-08   5.352e-08    -7.272    -7.271     0.000    -17.09
   NaCO3-          5.167e-09   4.966e-09    -8.287    -8.304    -0.017     -1.33
   (CO2)2          3.512e-11   3.513e-11   -10.454   -10.454     0.000     68.56
   FeHCO3+         1.717e-12   1.650e-12   -11.765   -11.783    -0.017     (0)  
   FeCO3           5.498e-13   5.500e-13   -12.260   -12.260     0.000     (0)  
Ca            2.423e-04
   Ca+2            2.401e-04   2.053e-04    -3.620    -3.688    -0.068    -18.16
   CaHCO3+         1.610e-06   1.549e-06    -5.793    -5.810    -0.017      9.55
   CaSO4           3.617e-07   3.618e-07    -6.442    -6.441     0.000      7.38
   CaCO3           2.810e-07   2.811e-07    -6.551    -6.551     0.000    -14.61
   CaOH+           1.121e-09   1.077e-09    -8.950    -8.968    -0.017     (0)  
   CaHSO4+         7.494e-14   7.203e-14   -13.125   -13.143    -0.017     (0)  
Cl            6.245e-05
   Cl-             6.245e-05   6.002e-05    -4.204    -4.222    -0.017     17.98
   FeCl+           2.286e-15   2.197e-15   -14.641   -14.658    -0.017     (0)  
   FeCl+2          1.301e-19   1.112e-19   -18.886   -18.954    -0.068     (0)  
   FeCl2+          3.424e-23   3.293e-23   -22.465   -22.482    -0.017     (0)  
   FeCl3           1.976e-28   1.976e-28   -27.704   -27.704     0.000     (0)  
Fe(2)         3.351e-11
   Fe+2            3.097e-11   2.652e-11   -10.509   -10.576    -0.067    -22.32
   FeHCO3+         1.717e-12   1.650e-12   -11.765   -11.783    -0.017     (0)  
   FeCO3           5.498e-13   5.500e-13   -12.260   -12.260     0.000     (0)  
   FeOH+           2.182e-13   2.098e-13   -12.661   -12.678    -0.017     (0)  
   FeSO4           4.518e-14   4.519e-14   -13.345   -13.345     0.000     22.36
   FeCl+           2.286e-15   2.197e-15   -14.641   -14.658    -0.017     (0)  
   Fe(OH)2         4.300e-17   4.301e-17   -16.367   -16.366     0.000     (0)  
   Fe(OH)3-        5.096e-20   4.900e-20   -19.293   -19.310    -0.017     (0)  
   FeHSO4+         9.681e-21   9.305e-21   -20.014   -20.031    -0.017     (0)  
Fe(3)         5.014e-07
   Fe(OH)3         3.801e-07   3.802e-07    -6.420    -6.420     0.000     (0)  
   Fe(OH)2+        1.112e-07   1.070e-07    -6.954    -6.971    -0.017     (0)  
   Fe(OH)4-        1.005e-08   9.667e-09    -7.998    -8.015    -0.017     (0)  
   FeOH+2          1.346e-11   1.151e-11   -10.871   -10.939    -0.068     (0)  
   Fe+3            9.505e-17   6.777e-17   -16.022   -16.169    -0.147     (0)  
   FeSO4+          7.317e-18   7.035e-18   -17.136   -17.153    -0.017     (0)  
   FeCl+2          1.301e-19   1.112e-19   -18.886   -18.954    -0.068     (0)  
   Fe2(OH)2+4      7.650e-21   4.055e-21   -20.116   -20.392    -0.276     (0)  
   Fe(SO4)2-       1.605e-21   1.543e-21   -20.794   -20.812    -0.017     (0)  
   FeCl2+          3.424e-23   3.293e-23   -22.465   -22.482    -0.017     (0)  
   FeHSO4+2        6.999e-25   5.973e-25   -24.155   -24.224    -0.069     (0)  
   Fe3(OH)4+5      3.262e-25   1.210e-25   -24.486   -24.917    -0.431     (0)  
   FeCl3           1.976e-28   1.976e-28   -27.704   -27.704     0.000     (0)  
H(0)          1.447e-33
   H2              7.235e-34   7.237e-34   -33.141   -33.140     0.000     28.61
K             7.639e-05
   K+              7.639e-05   7.340e-05    -4.117    -4.134    -0.017      8.91
   KSO4-           5.153e-09   4.956e-09    -8.288    -8.305    -0.017     34.03
Mg            8.021e-05
   Mg+2            7.949e-05   6.804e-05    -4.100    -4.167    -0.068    -21.69
   MgHCO3+         5.088e-07   4.890e-07    -6.293    -6.311    -0.017      5.39
   MgSO4           1.493e-07   1.493e-07    -6.826    -6.826     0.000      5.71
   MgCO3           5.351e-08   5.352e-08    -7.272    -7.271     0.000    -17.09
   MgOH+           6.119e-09   5.887e-09    -8.213    -8.230    -0.017     (0)  
N(5)          1.971e-05
   NO3-            1.971e-05   1.893e-05    -4.705    -4.723    -0.017     29.18
Na            3.759e-04
   Na+             3.758e-04   3.613e-04    -3.425    -3.442    -0.017     -1.64
   NaHCO3          1.286e-07   1.287e-07    -6.891    -6.891     0.000      1.80
   NaSO4-          1.873e-08   1.801e-08    -7.727    -7.744    -0.017     13.86
   NaCO3-          5.167e-09   4.966e-09    -8.287    -8.304    -0.017     -1.33
   NaOH            9.092e-21   9.094e-21   -20.041   -20.041     0.000     (0)  
O(0)          1.552e-27
   O2              7.759e-28   7.761e-28   -27.110   -27.110     0.000     30.15
S(6)          1.241e-05
   SO4-2           1.187e-05   1.015e-05    -4.925    -4.994    -0.068     14.10
   CaSO4           3.617e-07   3.618e-07    -6.442    -6.441     0.000      7.38
   MgSO4           1.493e-07   1.493e-07    -6.826    -6.826     0.000      5.71
   NaSO4-          1.873e-08   1.801e-08    -7.727    -7.744    -0.017     13.86
   KSO4-           5.153e-09   4.956e-09    -8.288    -8.305    -0.017     34.03
   HSO4-           3.037e-11   2.918e-11   -10.518   -10.535    -0.017     40.06
   CaHSO4+         7.494e-14   7.203e-14   -13.125   -13.143    -0.017     (0)  
   FeSO4           4.518e-14   4.519e-14   -13.345   -13.345     0.000     22.36
   AlSO4+          4.373e-14   4.203e-14   -13.359   -13.376    -0.017     (0)  
   Al(SO4)2-       1.383e-17   1.329e-17   -16.859   -16.876    -0.017     (0)  
   FeSO4+          7.317e-18   7.035e-18   -17.136   -17.153    -0.017     (0)  
   FeHSO4+         9.681e-21   9.305e-21   -20.014   -20.031    -0.017     (0)  
   Fe(SO4)2-       1.605e-21   1.543e-21   -20.794   -20.812    -0.017     (0)  
   AlHSO4+2        1.346e-22   1.148e-22   -21.871   -21.940    -0.069     (0)  
   FeHSO4+2        6.999e-25   5.973e-25   -24.155   -24.224    -0.069     (0)  
Si            9.487e-07
   H4SiO4          9.446e-07   9.449e-07    -6.025    -6.025     0.000     52.35
   H3SiO4-         4.107e-09   3.947e-09    -8.387    -8.404    -0.017     27.90
   H2SiO4-2        8.081e-15   6.912e-15   -14.093   -14.160    -0.068     (0)  

------------------------------Saturation indices-------------------------------

  Phase               SI** log IAP   log K(295 K,   1 atm)

  Al(OH)3(a)       -0.37     10.63   11.00  Al(OH)3
  Albite           -8.17    -26.37  -18.20  NaAlSi3O8
  Alunite          -3.70     -4.72   -1.01  KAl3(SO4)2(OH)6
  Anhydrite        -4.44     -8.68   -4.24  CaSO4
  Anorthite        -5.65    -25.45  -19.80  CaAl2Si2O8
  Aragonite        -1.43     -9.75   -8.32  CaCO3
  Biotite           5.43      5.43    0.00  KMg3AlSi3O10(OH)2
  Ca-Montmorillonite  -3.56    -49.03  -45.48  Ca0.165Al2.33Si3.67O10(OH)2
  Calcite          -1.29     -9.75   -8.46  CaCO3
  CH2O            -64.34    -64.34    0.00  CH2O
  Chalcedony       -2.44     -6.02   -3.59  SiO2
  Chlorite(14A)   -12.19     57.36   69.55  Mg5Al2Si3O10(OH)8
  Chrysotile      -12.14     20.45   32.59  Mg3Si2O5(OH)4
  CO2(g)           -2.91     -4.34   -1.43  CO2
  Dolomite         -2.96    -19.98  -17.02  CaMg(CO3)2
  Fe(OH)3(a)        1.44      6.33    4.89  Fe(OH)3
  Gibbsite          2.35     10.63    8.29  Al(OH)3
  Goethite          7.22      6.33   -0.89  FeOOH
  Gypsum           -4.10     -8.68   -4.58  CaSO4:2H2O
  H2(g)           -30.05    -33.14   -3.09  H2
  H2O(g)           -1.58     -0.00    1.58  H2O
  Halite           -9.23     -7.66    1.57  NaCl
  Hematite         16.43     12.66   -3.77  Fe2O3
  Illite           -4.09    -44.78  -40.69  K0.6Mg0.25Al2.3Si3.5O10(OH)2
  Jarosite-K       -8.66    -17.63   -8.97  KFe3(SO4)2(OH)6
  K-feldspar       -6.25    -27.06  -20.81  KAlSi3O8
  K-mica            4.04     17.20   13.16  KAl3Si3O10(OH)2
  Kaolinite         1.51      9.22    7.71  Al2Si2O5(OH)4
  Melanterite     -13.32    -15.57   -2.25  FeSO4:7H2O
  O2(g)           -24.24    -27.11   -2.87  O2
  Plagioclase       5.56      5.56    0.00  Na0.62Ca0.37Al1.38Si2.625O8
  Quartz           -2.00     -6.02   -4.03  SiO2
  Sepiolite       -12.25      3.59   15.84  Mg2Si3O7.5OH:3H2O
  Sepiolite(d)    -15.07      3.59   18.66  Mg2Si3O7.5OH:3H2O
  Siderite         -5.77    -16.64  -10.87  FeCO3
  SiO2(a)          -3.29     -6.02   -2.74  SiO2
  Sylvite          -9.24     -8.36    0.88  KCl
  Talc            -13.36      8.40   21.76  Mg3Si4O10(OH)2

**For a gas, SI = log10(fugacity). Fugacity = pressure * phi / 1 atm.
  For ideal gases, phi = 1.

Initial solution 8.	 DS13 

-----------------------------Solution composition------------------------------

	Elements           Molality       Moles

	Al                6.672e-07   6.672e-07
	Alkalinity        7.670e-04   7.670e-04
	Ca                2.445e-04   2.445e-04
	Cl                5.997e-05   5.997e-05
	Fe                2.865e-07   2.865e-07
	K                 6.798e-05   6.798e-05
	Mg                7.890e-05   7.890e-05
	N(5)              1.942e-05   1.942e-05
	Na                2.489e-04   2.489e-04
	S(6)              1.175e-05   1.175e-05
	Si                8.489e-07   8.489e-07

----------------------------Description of solution----------------------------

                                       pH  =   7.500    
                                       pe  =   8.068    
      Specific Conductance (µS/cm,  22°C)  = 85
                          Density (g/cm³)  =   0.99783
                               Volume (L)  =   1.00225
                        Activity of water  =   1.000
                 Ionic strength (mol/kgw)  =   1.244e-03
                       Mass of water (kg)  =   1.000e+00
                    Total carbon (mol/kg)  =   8.163e-04
                       Total CO2 (mol/kg)  =   8.163e-04
                         Temperature (°C)  =  22.00
                  Electrical balance (eq)  =   9.597e-05
 Percent error, 100*(Cat-|An|)/(Cat+|An|)  =   5.27
                               Iterations  =   8 (63 overall)
                                  Total H  = 1.110132e+02
                                  Total O  = 5.550872e+01

----------------------------Distribution of species----------------------------

                                               Log       Log       Log    mole V
   Species          Molality    Activity  Molality  Activity     Gamma   cm³/mol

   OH-             2.640e-07   2.537e-07    -6.578    -6.596    -0.017     -4.23
   H+              3.283e-08   3.162e-08    -7.484    -7.500    -0.016      0.00
   H2O             5.551e+01   1.000e+00     1.744    -0.000     0.000     18.06
Al            6.672e-07
   Al(OH)4-        6.531e-07   6.281e-07    -6.185    -6.202    -0.017     (0)  
   Al(OH)3         1.095e-08   1.095e-08    -7.961    -7.961     0.000     (0)  
   Al(OH)2+        3.060e-09   2.943e-09    -8.514    -8.531    -0.017     (0)  
   AlOH+2          1.811e-11   1.550e-11   -10.742   -10.810    -0.067    -27.64
   Al+3            8.405e-14   6.007e-14   -13.075   -13.221    -0.146    -42.05
   AlSO4+          1.828e-15   1.758e-15   -14.738   -14.755    -0.017     (0)  
   Al(SO4)2-       5.488e-19   5.278e-19   -18.261   -18.278    -0.017     (0)  
   AlHSO4+2        5.626e-24   4.807e-24   -23.250   -23.318    -0.068     (0)  
C(4)          8.163e-04
   HCO3-           7.582e-04   7.293e-04    -3.120    -3.137    -0.017     24.45
   CO2             5.394e-05   5.395e-05    -4.268    -4.268     0.000     34.29
   CaHCO3+         1.907e-06   1.835e-06    -5.720    -5.736    -0.017      9.56
   CO3-2           1.186e-06   1.016e-06    -5.926    -5.993    -0.067     -5.52
   MgHCO3+         5.868e-07   5.641e-07    -6.232    -6.249    -0.017      5.39
   CaCO3           3.337e-07   3.338e-07    -6.477    -6.477     0.000    -14.61
   NaHCO3          9.979e-08   9.982e-08    -7.001    -7.001     0.000      1.80
   MgCO3           6.193e-08   6.195e-08    -7.208    -7.208     0.000    -17.09
   NaCO3-          4.039e-09   3.883e-09    -8.394    -8.411    -0.017     -1.32
   (CO2)2          4.829e-11   4.831e-11   -10.316   -10.316     0.000     68.57
   FeHCO3+         3.064e-13   2.946e-13   -12.514   -12.531    -0.017     (0)  
   FeCO3           9.839e-14   9.841e-14   -13.007   -13.007     0.000     (0)  
Ca            2.445e-04
   Ca+2            2.419e-04   2.071e-04    -3.616    -3.684    -0.067    -18.16
   CaHCO3+         1.907e-06   1.835e-06    -5.720    -5.736    -0.017      9.56
   CaSO4           3.464e-07   3.465e-07    -6.460    -6.460     0.000      7.38
   CaCO3           3.337e-07   3.338e-07    -6.477    -6.477     0.000    -14.61
   CaOH+           1.130e-09   1.087e-09    -8.947    -8.964    -0.017     (0)  
[...]
             Mg      8.128e-05  +  -3.251e-05  =   4.877e-05
          N(-3)      0.000e+00  +   0.000e+00  =   0.000e+00
           N(0)      0.000e+00  +   0.000e+00  =   0.000e+00
           N(3)      0.000e+00  +   0.000e+00  =   0.000e+00
           N(5)      2.035e-05  +   5.108e-06  =   2.546e-05
             Na      5.501e-04  +  -2.201e-04  =   3.301e-04
           O(0)      0.000e+00  +   0.000e+00  =   0.000e+00
             Si      4.328e-07  +   0.000e+00  =   4.328e-07

Solution fractions:                   Minimum        Maximum
   Solution  42      1.000e+00      0.000e+00      0.000e+00
   Solution  17      1.000e+00      0.000e+00      0.000e+00

Phase mole transfers:                 Minimum        Maximum
         CO2(g)     -4.419e-04      0.000e+00      0.000e+00   CO2
     Fe(OH)3(a)     -3.581e-08      0.000e+00      0.000e+00   Fe(OH)3
      Kaolinite      1.952e-04      0.000e+00      0.000e+00   Al2Si2O5(OH)4
           CH2O     -6.385e-06      0.000e+00      0.000e+00   CH2O
          N2(g)      2.554e-06      0.000e+00      0.000e+00   N2
     K-feldspar     -2.290e-05      0.000e+00      0.000e+00   KAlSi3O8
     Al(OH)3(a)     -2.021e-04      0.000e+00      0.000e+00   Al(OH)3
        Biotite     -7.042e-06      0.000e+00      0.000e+00   KMg3AlSi3O10(OH)2
    Plagioclase     -1.145e-04      0.000e+00      0.000e+00   Na0.62Ca0.37Al1.38Si2.625O8

Redox mole transfers:    
           N(0)      5.108e-06

Sum of residuals (epsilons in documentation):         9.508e+00
Sum of delta/uncertainty limit:                       9.508e+00
Maximum fractional error in element concentration:    4.000e-01
===============================================================================


Solution 42:  US22 

                         Input          Delta    Input+Delta
             pH      7.000e+00  +   0.000e+00  =   7.000e+00
             Al      5.449e-06  +   0.000e+00  =   5.449e-06
     Alkalinity      8.588e-04  +   1.718e-04  =   1.031e-03
          C(-4)      0.000e+00  +   0.000e+00  =   0.000e+00
           C(4)      1.024e-03  +  -2.049e-04  =   8.196e-04
             Ca      2.712e-04  +  -5.424e-05  =   2.170e-04
          Fe(2)      8.316e-13  +   0.000e+00  =   8.316e-13
          Fe(3)      1.254e-07  +  -1.549e-12  =   1.253e-07
           H(0)      0.000e+00  +   0.000e+00  =   0.000e+00
              K      7.458e-05  +  -1.467e-05  =   5.991e-05
             Mg      8.737e-05  +  -1.747e-05  =   6.990e-05
          N(-3)      0.000e+00  +   0.000e+00  =   0.000e+00
           N(0)      0.000e+00  +   0.000e+00  =   0.000e+00
           N(3)      0.000e+00  +   0.000e+00  =   0.000e+00
           N(5)      2.035e-05  +  -2.262e-06  =   1.809e-05
             Na      3.903e-04  +   8.246e-06  =   3.986e-04
           O(0)      0.000e+00  +   0.000e+00  =   0.000e+00
             Si      4.660e-07  +   0.000e+00  =   4.660e-07

Solution 17:  DS22 

                         Input          Delta    Input+Delta
             pH      7.600e+00  +   0.000e+00  =   7.600e+00
             Al      5.782e-06  +   0.000e+00  =   5.782e-06
     Alkalinity      5.704e-04  +   2.281e-04  =   7.985e-04
          C(-4)      0.000e+00  +   0.000e+00  =   0.000e+00
           C(4)      5.761e-04  +   2.304e-04  =   8.066e-04
             Ca      2.484e-04  +  -7.228e-05  =   1.761e-04
          Fe(2)      3.742e-13  +   0.000e+00  =   3.742e-13
          Fe(3)      8.954e-08  +   3.581e-08  =   1.253e-07
           H(0)      0.000e+00  +   0.000e+00  =   0.000e+00
              K      4.954e-05  +  -1.982e-05  =   2.972e-05
             Mg      8.128e-05  +  -3.251e-05  =   4.877e-05
          N(-3)      0.000e+00  +   0.000e+00  =   0.000e+00
           N(0)      0.000e+00  +   0.000e+00  =   0.000e+00
           N(3)      0.000e+00  +   0.000e+00  =   0.000e+00
           N(5)      2.035e-05  +   8.139e-06  =   2.849e-05
             Na      5.501e-04  +  -2.201e-04  =   3.301e-04
           O(0)      0.000e+00  +   0.000e+00  =   0.000e+00
             Si      4.328e-07  +   0.000e+00  =   4.328e-07

Solution fractions:                   Minimum        Maximum
   Solution  42      1.000e+00      0.000e+00      0.000e+00
   Solution  17      1.000e+00      0.000e+00      0.000e+00

Phase mole transfers:                 Minimum        Maximum
      Kaolinite      1.903e-04      0.000e+00      0.000e+00   Al2Si2O5(OH)4
           CH2O     -1.300e-05      0.000e+00      0.000e+00   CH2O
          N2(g)      5.201e-06      0.000e+00      0.000e+00   N2
     K-feldspar     -2.314e-05      0.000e+00      0.000e+00   KAlSi3O8
     Al(OH)3(a)     -1.975e-04      0.000e+00      0.000e+00   Al(OH)3
        Biotite     -7.042e-06      0.000e+00      0.000e+00   KMg3AlSi3O10(OH)2
    Plagioclase     -1.105e-04      0.000e+00      0.000e+00   Na0.62Ca0.37Al1.38Si2.625O8

Redox mole transfers:    
           N(0)      1.040e-05

Sum of residuals (epsilons in documentation):         1.337e+01
Sum of delta/uncertainty limit:                       1.337e+01
Maximum fractional error in element concentration:    4.000e-01

Model contains minimum number of phases.
===============================================================================


Solution 42:  US22 

                         Input          Delta    Input+Delta
             pH      7.000e+00  +   0.000e+00  =   7.000e+00
             Al      5.449e-06  +   0.000e+00  =   5.449e-06
     Alkalinity      8.588e-04  +   1.718e-04  =   1.031e-03
          C(-4)      0.000e+00  +   0.000e+00  =   0.000e+00
           C(4)      1.024e-03  +   0.000e+00  =   1.024e-03
             Ca      2.712e-04  +  -5.424e-05  =   2.170e-04
          Fe(2)      8.316e-13  +   0.000e+00  =   8.316e-13
          Fe(3)      1.254e-07  +   0.000e+00  =   1.254e-07
           H(0)      0.000e+00  +   0.000e+00  =   0.000e+00
              K      7.458e-05  +  -1.492e-05  =   5.966e-05
             Mg      8.737e-05  +  -1.747e-05  =   6.990e-05
          N(-3)      0.000e+00  +   0.000e+00  =   0.000e+00
           N(0)      0.000e+00  +   0.000e+00  =   0.000e+00
           N(3)      0.000e+00  +   0.000e+00  =   0.000e+00
           N(5)      2.035e-05  +   0.000e+00  =   2.035e-05
             Na      3.903e-04  +   1.076e-05  =   4.011e-04
           O(0)      0.000e+00  +   0.000e+00  =   0.000e+00
             Si      4.660e-07  +   0.000e+00  =   4.660e-07

Solution 17:  DS22 

                         Input          Delta    Input+Delta
             pH      7.600e+00  +   0.000e+00  =   7.600e+00
             Al      5.782e-06  +  -1.703e-06  =   4.079e-06
     Alkalinity      5.704e-04  +   2.281e-04  =   7.985e-04
          C(-4)      0.000e+00  +   0.000e+00  =   0.000e+00
           C(4)      5.761e-04  +   0.000e+00  =   5.761e-04
             Ca      2.484e-04  +  -7.378e-05  =   1.746e-04
          Fe(2)      3.742e-13  +   0.000e+00  =   3.742e-13
          Fe(3)      8.954e-08  +   0.000e+00  =   8.954e-08
           H(0)      0.000e+00  +   0.000e+00  =   0.000e+00
              K      4.954e-05  +  -1.982e-05  =   2.972e-05
             Mg      8.128e-05  +  -3.251e-05  =   4.877e-05
          N(-3)      0.000e+00  +   0.000e+00  =   0.000e+00
           N(0)      0.000e+00  +   0.000e+00  =   0.000e+00
           N(3)      0.000e+00  +   0.000e+00  =   0.000e+00
           N(5)      2.035e-05  +   6.260e-11  =   2.035e-05
             Na      5.501e-04  +  -2.201e-04  =   3.301e-04
           O(0)      0.000e+00  +   0.000e+00  =   0.000e+00
             Si      4.328e-07  +   0.000e+00  =   4.328e-07

Solution fractions:                   Minimum        Maximum
   Solution  42      1.000e+00      0.000e+00      0.000e+00
   Solution  17      1.000e+00      0.000e+00      0.000e+00

Phase mole transfers:                 Minimum        Maximum
         CO2(g)     -4.483e-04      0.000e+00      0.000e+00   CO2
     Fe(OH)3(a)     -3.581e-08      0.000e+00      0.000e+00   Fe(OH)3
      Kaolinite      1.952e-04      0.000e+00      0.000e+00   Al2Si2O5(OH)4
     K-feldspar     -2.290e-05      0.000e+00      0.000e+00   KAlSi3O8
     Al(OH)3(a)     -2.038e-04      0.000e+00      0.000e+00   Al(OH)3
        Biotite     -7.042e-06      0.000e+00      0.000e+00   KMg3AlSi3O10(OH)2
    Plagioclase     -1.145e-04      0.000e+00      0.000e+00   Na0.62Ca0.37Al1.38Si2.625O8

Redox mole transfers:    

Sum of residuals (epsilons in documentation):         9.617e+00
Sum of delta/uncertainty limit:                       9.617e+00
Maximum fractional error in element concentration:    4.000e-01
===============================================================================


Solution 42:  US22 

                         Input          Delta    Input+Delta
             pH      7.000e+00  +   0.000e+00  =   7.000e+00
             Al      5.449e-06  +   0.000e+00  =   5.449e-06
     Alkalinity      8.588e-04  +   1.718e-04  =   1.031e-03
          C(-4)      0.000e+00  +   0.000e+00  =   0.000e+00
           C(4)      1.024e-03  +   0.000e+00  =   1.024e-03
             Ca      2.712e-04  +  -5.424e-05  =   2.170e-04
          Fe(2)      8.316e-13  +   0.000e+00  =   8.316e-13
          Fe(3)      1.254e-07  +  -5.352e-13  =   1.253e-07
           H(0)      0.000e+00  +   0.000e+00  =   0.000e+00
              K      7.458e-05  +  -1.492e-05  =   5.966e-05
             Mg      8.737e-05  +  -1.747e-05  =   6.990e-05
          N(-3)      0.000e+00  +   0.000e+00  =   0.000e+00
           N(0)      0.000e+00  +   0.000e+00  =   0.000e+00
           N(3)      0.000e+00  +   0.000e+00  =   0.000e+00
           N(5)      2.035e-05  +   0.000e+00  =   2.035e-05
             Na      3.903e-04  +   1.076e-05  =   4.011e-04
           O(0)      0.000e+00  +   0.000e+00  =   0.000e+00
             Si      4.660e-07  +   0.000e+00  =   4.660e-07

Solution 17:  DS22 

                         Input          Delta    Input+Delta
             pH      7.600e+00  +   0.000e+00  =   7.600e+00
             Al      5.782e-06  +  -1.715e-06  =   4.068e-06
     Alkalinity      5.704e-04  +   2.281e-04  =   7.985e-04
          C(-4)      0.000e+00  +   0.000e+00  =   0.000e+00
           C(4)      5.761e-04  +   0.000e+00  =   5.761e-04
             Ca      2.484e-04  +  -7.378e-05  =   1.746e-04
          Fe(2)      3.742e-13  +   0.000e+00  =   3.742e-13
          Fe(3)      8.954e-08  +   3.581e-08  =   1.253e-07
           H(0)      0.000e+00  +   0.000e+00  =   0.000e+00
              K      4.954e-05  +  -1.982e-05  =   2.972e-05
             Mg      8.128e-05  +  -3.251e-05  =   4.877e-05
          N(-3)      0.000e+00  +   0.000e+00  =   0.000e+00
           N(0)      0.000e+00  +   0.000e+00  =   0.000e+00
           N(3)      0.000e+00  +   0.000e+00  =   0.000e+00
           N(5)      2.035e-05  +   6.257e-11  =   2.035e-05
             Na      5.501e-04  +  -2.201e-04  =   3.301e-04
           O(0)      0.000e+00  +   0.000e+00  =   0.000e+00
             Si      4.328e-07  +   0.000e+00  =   4.328e-07

Solution fractions:                   Minimum        Maximum
   Solution  42      1.000e+00      0.000e+00      0.000e+00
   Solution  17      1.000e+00      0.000e+00      0.000e+00

Phase mole transfers:                 Minimum        Maximum
         CO2(g)     -4.483e-04      0.000e+00      0.000e+00   CO2
      Kaolinite      1.952e-04      0.000e+00      0.000e+00   Al2Si2O5(OH)4
     K-feldspar     -2.290e-05      0.000e+00      0.000e+00   KAlSi3O8
     Al(OH)3(a)     -2.038e-04      0.000e+00      0.000e+00   Al(OH)3
        Biotite     -7.042e-06      0.000e+00      0.000e+00   KMg3AlSi3O10(OH)2
    Plagioclase     -1.145e-04      0.000e+00      0.000e+00   Na0.62Ca0.37Al1.38Si2.625O8

Redox mole transfers:    

Sum of residuals (epsilons in documentation):         1.062e+01
Sum of delta/uncertainty limit:                       1.062e+01
Maximum fractional error in element concentration:    4.000e-01

Model contains minimum number of phases.
===============================================================================


Solution 42:  US22 

                         Input          Delta    Input+Delta
             pH      7.000e+00  +   0.000e+00  =   7.000e+00
             Al      5.449e-06  +   0.000e+00  =   5.449e-06
     Alkalinity      8.588e-04  +   1.718e-04  =   1.031e-03
          C(-4)      0.000e+00  +   0.000e+00  =   0.000e+00
           C(4)      1.024e-03  +   0.000e+00  =   1.024e-03
             Ca      2.712e-04  +  -5.424e-05  =   2.170e-04
          Fe(2)      8.316e-13  +   0.000e+00  =   8.316e-13
          Fe(3)      1.254e-07  +  -5.439e-13  =   1.253e-07
           H(0)      0.000e+00  +   0.000e+00  =   0.000e+00
              K      7.458e-05  +  -1.492e-05  =   5.966e-05
             Mg      8.737e-05  +  -1.747e-05  =   6.990e-05
          N(-3)      0.000e+00  +   0.000e+00  =   0.000e+00
           N(0)      0.000e+00  +   0.000e+00  =   0.000e+00
           N(3)      0.000e+00  +   0.000e+00  =   0.000e+00
           N(5)      2.035e-05  +   0.000e+00  =   2.035e-05
             Na      3.903e-04  +   1.076e-05  =   4.011e-04
           O(0)      0.000e+00  +   0.000e+00  =   0.000e+00
             Si      4.660e-07  +   0.000e+00  =   4.660e-07

Solution 17:  DS22 

                         Input          Delta    Input+Delta
             pH      7.600e+00  +   0.000e+00  =   7.600e+00
             Al      5.782e-06  +   0.000e+00  =   5.782e-06
     Alkalinity      5.704e-04  +   2.281e-04  =   7.985e-04
          C(-4)      0.000e+00  +   0.000e+00  =   0.000e+00
           C(4)      5.761e-04  +   0.000e+00  =   5.761e-04
             Ca      2.484e-04  +  -7.378e-05  =   1.746e-04
          Fe(2)      3.742e-13  +   0.000e+00  =   3.742e-13
          Fe(3)      8.954e-08  +   3.581e-08  =   1.253e-07
           H(0)      0.000e+00  +   0.000e+00  =   0.000e+00
              K      4.954e-05  +  -1.982e-05  =   2.972e-05
             Mg      8.128e-05  +  -3.251e-05  =   4.877e-05
          N(-3)      0.000e+00  +   0.000e+00  =   0.000e+00
           N(0)      0.000e+00  +   0.000e+00  =   0.000e+00
           N(3)      0.000e+00  +   0.000e+00  =   0.000e+00
           N(5)      2.035e-05  +   5.144e-06  =   2.549e-05
             Na      5.501e-04  +  -2.201e-04  =   3.301e-04
           O(0)      0.000e+00  +   0.000e+00  =   0.000e+00
             Si      4.328e-07  +   0.000e+00  =   4.328e-07

Solution fractions:                   Minimum        Maximum
   Solution  42      1.000e+00      0.000e+00      0.000e+00
   Solution  17      1.000e+00      0.000e+00      0.000e+00

Phase mole transfers:                 Minimum        Maximum
         CO2(g)     -4.419e-04      0.000e+00      0.000e+00   CO2
      Kaolinite      1.952e-04      0.000e+00      0.000e+00   Al2Si2O5(OH)4
           CH2O     -6.430e-06      0.000e+00      0.000e+00   CH2O
          N2(g)      2.572e-06      0.000e+00      0.000e+00   N2
     K-feldspar     -2.290e-05      0.000e+00      0.000e+00   KAlSi3O8
     Al(OH)3(a)     -2.021e-04      0.000e+00      0.000e+00   Al(OH)3
        Biotite     -7.042e-06      0.000e+00      0.000e+00   KMg3AlSi3O10(OH)2
    Plagioclase     -1.145e-04      0.000e+00      0.000e+00   Na0.62Ca0.37Al1.38Si2.625O8

Redox mole transfers:    
           N(0)      5.144e-06

Sum of residuals (epsilons in documentation):         1.051e+01
Sum of delta/uncertainty limit:                       1.051e+01
Maximum fractional error in element concentration:    4.000e-01
===============================================================================


Solution 42:  US22 

                         Input          Delta    Input+Delta
             pH      7.000e+00  +   0.000e+00  =   7.000e+00
             Al      5.449e-06  +   0.000e+00  =   5.449e-06
     Alkalinity      8.588e-04  +   1.718e-04  =   1.031e-03
          C(-4)      0.000e+00  +   0.000e+00  =   0.000e+00
           C(4)      1.024e-03  +  -2.049e-04  =   8.196e-04
             Ca      2.712e-04  +  -5.424e-05  =   2.170e-04
          Fe(2)      8.316e-13  +   0.000e+00  =   8.316e-13
          Fe(3)      1.254e-07  +   0.000e+00  =   1.254e-07
           H(0)      0.000e+00  +   0.000e+00  =   0.000e+00
              K      7.458e-05  +  -1.464e-05  =   5.994e-05
             Mg      8.737e-05  +  -1.747e-05  =   6.990e-05
          N(-3)      0.000e+00  +   0.000e+00  =   0.000e+00
           N(0)      0.000e+00  +   0.000e+00  =   0.000e+00
           N(3)      0.000e+00  +   0.000e+00  =   0.000e+00
           N(5)      2.035e-05  +  -2.262e-06  =   1.809e-05
             Na      3.903e-04  +   8.216e-06  =   3.985e-04
           O(0)      0.000e+00  +   0.000e+00  =   0.000e+00
             Si      4.660e-07  +   0.000e+00  =   4.660e-07

Solution 17:  DS22 

                         Input          Delta    Input+Delta
             pH      7.600e+00  +   0.000e+00  =   7.600e+00
             Al      5.782e-06  +   0.000e+00  =   5.782e-06
     Alkalinity      5.704e-04  +   2.281e-04  =   7.985e-04
          C(-4)      0.000e+00  +   0.000e+00  =   0.000e+00
           C(4)      5.761e-04  +   2.304e-04  =   8.066e-04
             Ca      2.484e-04  +  -7.226e-05  =   1.761e-04
          Fe(2)      3.742e-13  +   0.000e+00  =   3.742e-13
          Fe(3)      8.954e-08  +   0.000e+00  =   8.954e-08
           H(0)      0.000e+00  +   0.000e+00  =   0.000e+00
              K      4.954e-05  +  -1.982e-05  =   2.972e-05
             Mg      8.128e-05  +  -3.251e-05  =   4.877e-05
          N(-3)      0.000e+00  +   0.000e+00  =   0.000e+00
           N(0)      0.000e+00  +   0.000e+00  =   0.000e+00
           N(3)      0.000e+00  +   0.000e+00  =   0.000e+00
           N(5)      2.035e-05  +   8.139e-06  =   2.849e-05
             Na      5.501e-04  +  -2.201e-04  =   3.301e-04
           O(0)      0.000e+00  +   0.000e+00  =   0.000e+00
             Si      4.328e-07  +   0.000e+00  =   4.328e-07

Solution fractions:                   Minimum        Maximum
   Solution  42      1.000e+00      0.000e+00      0.000e+00
   Solution  17      1.000e+00      0.000e+00      0.000e+00

Phase mole transfers:                 Minimum        Maximum
     Fe(OH)3(a)     -3.582e-08      0.000e+00      0.000e+00   Fe(OH)3
      Kaolinite      1.902e-04      0.000e+00      0.000e+00   Al2Si2O5(OH)4
           CH2O     -1.300e-05      0.000e+00      0.000e+00   CH2O
          N2(g)      5.201e-06      0.000e+00      0.000e+00   N2
     K-feldspar     -2.317e-05      0.000e+00      0.000e+00   KAlSi3O8
     Al(OH)3(a)     -1.975e-04      0.000e+00      0.000e+00   Al(OH)3
        Biotite     -7.042e-06      0.000e+00      0.000e+00   KMg3AlSi3O10(OH)2
    Plagioclase     -1.104e-04      0.000e+00      0.000e+00   Na0.62Ca0.37Al1.38Si2.625O8

Redox mole transfers:    
           N(0)      1.040e-05

Sum of residuals (epsilons in documentation):         1.237e+01
Sum of delta/uncertainty limit:                       1.237e+01
Maximum fractional error in element concentration:    4.000e-01
===============================================================================


Summary of inverse modeling:

	Number of models found: 6
	Number of minimal models found: 2
	Number of infeasible sets of phases saved: 18
	Number of calls to cl1: 33
------------------
End of simulation.
------------------

------------------------------------
Reading input data for simulation 2.
------------------------------------

-------------------------------
End of Run after 0.555 Seconds.
-------------------------------

