   Input file: C:\Users\wdn266\Dropbox\CR\netpathz\test1.pqi
  Output file: C:\Users\wdn266\Dropbox\CR\netpathz\test1.pqo
Database file: C:\Program Files (x86)\USGS\Phreeqc Interactive 3.6.2-15100\database\phreeqc.dat

------------------
Reading data base.
------------------

	SOLUTION_MASTER_SPECIES
	SOLUTION_SPECIES
	PHASES
	EXCHANGE_MASTER_SPECIES
	EXCHANGE_SPECIES
	SURFACE_MASTER_SPECIES
	SURFACE_SPECIES
	RATES
	END
------------------------------------
Reading input data for simulation 1.
------------------------------------

	DATABASE C:\Program Files (x86)\USGS\Phreeqc Interactive 3.6.2-15100\database\phreeqc.dat
	SOLUTION_SPREAD
	 Number	 Description	 Units	 Redox	   Temp	    pH	     pe	     Ca	    Mg	     Na	     K	   S(6)	   Alkalinity	    Fe	    Al	      Si	  N(5)	 N(0)	 14C	 3H	 15N(0)	 15N(5)	 15N(-3)	 15N(3)	 Density
	      	            	      	      	       	      	       	  as Ca	 as Mg	  as Na	  as K	 as SO4	 gfw 50.04289	 as Fe	 as Al	 as SiO2	  as N	 as N	    	   	       	       	        	       	        
	      1	        DS01	  mg/l	    pe	 22.200	 7.400	  8.068	 10.464	 2.051	  7.240	 3.136	  0.790	       37.563	      	      	        	 0.126	     	    	   	       	       	        	       	   1.000
	      2	        DS02	  mg/l	    pe	 22.200	 7.400	  8.068	  9.761	 1.946	  8.764	 2.609	  1.093	       36.250	      	      	        	 0.304	     	    	   	       	       	        	       	   1.000
	      3	        DS03	  mg/l	    pe	 22.200	 7.400	  8.068	  9.863	 1.978	  7.047	 2.568	  0.876	       46.420	      	      	        	 0.262	     	    	   	       	       	        	       	   1.000
	      4	        DS09	  mg/l	    pe	 22.100	 7.600	  6.903	  9.470	 1.883	  8.291	 2.487	  1.001	       34.446	      	      	        	 0.242	     	    	   	       	       	        	       	   1.000
	      5	        DS10	  mg/l	    pe	 22.100	 7.600	  6.903	  9.891	 1.978	  6.608	 3.135	  0.906	       36.250	 0.017	 0.270	   0.058	 0.245	     	    	   	       	       	        	       	   1.000
	      6	        DS11	  mg/l	    pe	 22.000	 7.500	  7.100	  6.970	 1.300	 13.446	 1.457	  1.405	       27.229	 0.259	 0.854	   0.049	 0.255	     	    	   	       	       	        	       	   1.000
	      7	        DS12	  mg/l	    pe	 21.900	 7.500	  7.502	  9.711	 1.950	  8.642	 2.987	  1.192	       35.594	 0.028	 0.399	   0.057	 0.276	     	    	   	       	       	        	       	   1.000
	      8	        DS13	  mg/l	    pe	 22.000	 7.500	  8.068	  9.798	 1.918	  5.722	 2.658	  1.129	       38.383	 0.016	 0.018	   0.051	 0.272	     	    	   	       	       	        	       	   1.000
	      9	        DS14	  mg/l	    pe	 22.000	 7.600	  8.215	  9.885	 1.938	  5.737	 2.863	  0.852	       39.367	 0.003	 0.005	   0.024	 0.200	     	    	   	       	       	        	       	   1.000
	     10	        DS15	  mg/l	    pe	 22.000	 7.600	  8.351	 10.249	 2.064	  9.245	 2.979	  0.946	       38.711	 0.002	 0.001	   0.027	 0.200	     	    	   	       	       	        	       	   1.000
	     11	        DS16	  mg/l	    pe	 22.000	 7.600	  8.431	 10.127	 2.025	  9.151	 2.866	  1.002	       39.367	 0.002	 0.004	   0.024	 0.286	     	    	   	       	       	        	       	   1.000
	     12	        DS17	  mg/l	    pe	 21.900	 7.600	  8.546	 10.217	 1.994	 10.322	 2.262	  0.755	       42.647	 0.007	 0.167	   0.026	 0.172	     	    	   	       	       	        	       	   1.000
	     13	        DS18	  mg/l	    pe	 21.900	 7.600	  8.558	 10.026	 1.971	  9.198	 2.340	  0.800	       37.727	 0.006	 0.156	   0.025	 0.200	     	    	   	       	       	        	       	   1.000
	     14	        DS19	  mg/l	    pe	 21.800	 7.500	  8.554	 10.163	 2.002	  9.382	 2.364	  0.882	       38.219	 0.006	 0.159	   0.026	 0.150	     	    	   	       	       	        	       	   1.000
	     15	        DS20	  mg/l	    pe	 21.900	 7.600	  8.593	  9.729	 1.918	 12.107	 1.767	  0.846	       39.695	 0.008	 0.193	   0.027	 0.328	     	    	   	       	       	        	       	   1.000
	     16	        DS21	  mg/l	    pe	 22.000	 7.600	  8.615	 10.315	 2.010	  8.684	 2.540	  0.873	       39.859	 0.006	 0.185	   0.027	 0.305	     	    	   	       	       	        	       	   1.000
	     17	        DS22	  mg/l	    pe	 22.000	 7.600	  8.414	  9.954	 1.976	 12.647	 1.937	  0.843	       28.541	 0.005	 0.156	   0.026	 0.285	     	    	   	       	       	        	       	   1.000
	     18	        DS23	  mg/l	    pe	 22.100	 7.600	  8.732	 10.439	 2.064	  9.154	 2.853	  0.853	       41.499	 0.006	 0.175	   0.027	 0.317	     	    	   	       	       	        	       	   1.000
	     19	        DS24	  mg/l	    pe	 22.000	 7.600	  8.758	 10.126	 1.974	  8.424	 2.498	  0.847	       37.891	 0.008	 0.170	   0.026	 0.288	     	    	   	       	       	        	       	   1.000
	     20	        DS25	  mg/l	    pe	 22.000	 7.600	  8.414	 10.293	 2.037	  9.263	 3.001	  0.859	       37.891	 0.007	 0.197	   0.026	 0.320	     	    	   	       	       	        	       	   1.000
	     21	        US01	  mg/l	    pe	 22.000	 6.100	  8.729	 10.862	 2.109	  7.472	 2.800	  0.812	       33.954	      	      	        	 0.272	     	    	   	       	       	        	       	   1.000
	     22	        US02	  mg/l	    pe	 21.900	 7.000	  9.458	 10.779	 2.108	  7.632	 3.437	  0.830	       40.023	      	      	        	 0.078	     	    	   	       	       	        	       	   1.000
	     23	        US03	  mg/l	    pe	 21.900	 7.000	  9.254	  9.679	 1.923	  6.409	 3.272	  0.837	       41.335	      	      	        	 0.299	     	    	   	       	       	        	       	   1.000
	     24	        US04	  mg/l	    pe	 21.900	 7.100	  9.525	  9.688	 1.910	  6.475	 3.119	  0.826	       41.007	      	      	        	 0.272	     	    	   	       	       	        	       	   1.000
	     25	        US05	  mg/l	    pe	 21.900	 7.100	  9.610	  9.921	 1.926	  8.604	 2.384	  1.083	       49.865	      	      	        	 0.360	     	    	   	       	       	        	       	   1.000
	     26	        US06	  mg/l	    pe	 21.900	 7.100	  9.683	 10.502	 2.004	  9.508	 3.053	  1.162	       38.875	      	      	        	 0.345	     	    	   	       	       	        	       	   1.000
	     27	        US07	  mg/l	    pe	 21.900	 7.100	  9.720	  9.848	 1.919	 10.427	 1.972	  0.967	       39.859	      	      	        	 0.367	     	    	   	       	       	        	       	   1.000
	     28	        US08	  mg/l	    pe	 21.900	 7.100	  9.751	 10.164	 2.015	  8.398	 2.767	  0.969	       88.575	      	      	        	 0.343	     	    	   	       	       	        	       	   1.000
	     29	        US09	  mg/l	    pe	 21.900	 7.100	  9.715	 10.294	 2.046	  9.522	 2.780	  1.044	       34.282	 0.007	 0.004	   0.058	 0.276	     	    	   	       	       	        	       	   1.000
	     30	        US10	  mg/l	    pe	 21.900	 7.100	  9.715	 10.364	 2.067	  8.940	 3.069	  0.974	       36.250	 0.003	 0.004	   0.057	 0.266	     	    	   	       	       	        	       	   1.000
	     31	        US11	  mg/l	    pe	 21.900	 7.000	  9.744	  9.111	 1.785	  9.419	 3.147	  0.928	       36.250	 0.013	 0.022	   0.049	 0.338	     	    	   	       	       	        	       	   1.000
	     32	        US12	  mg/l	    pe	 21.800	 7.100	  9.790	 10.462	 2.077	  7.061	 3.137	  1.089	       36.906	 0.002	 0.002	   0.063	 0.295	     	    	   	       	       	        	       	   1.000
	     33	        US13	  mg/l	    pe	 21.900	 7.000	  9.666	 10.575	 2.123	  9.609	 3.317	  1.306	       38.219	 0.010	 0.283	   0.061	 0.283	     	    	   	       	       	        	       	   1.000
	     34	        US14	  mg/l	    pe	 21.900	 7.000	  9.780	 10.596	 2.138	 10.504	 3.204	  1.011	       42.483	 0.005	 0.173	   0.028	 0.354	     	    	   	       	       	        	       	   1.000
	     35	        US15	  mg/l	    pe	 21.800	 7.000	  9.819	 10.682	 2.153	  9.959	 3.246	  1.093	       40.351	 0.002	 0.001	   0.026	 0.304	     	    	   	       	       	        	       	   1.000
	     36	        US16	  mg/l	    pe	 21.900	 7.000	  9.842	 10.066	 1.996	  8.056	 2.684	  0.854	       40.679	 0.005	 0.140	   0.026	 0.308	     	    	   	       	       	        	       	   1.000
	     37	        US17	  mg/l	    pe	 21.800	 7.100	  9.853	 10.781	 2.136	  9.194	 3.429	  0.862	       40.843	 0.004	 0.162	   0.028	 0.259	     	    	   	       	       	        	       	   1.000
	     38	        US18	  mg/l	    pe	 21.800	 7.100	  9.854	 10.685	 2.078	  8.780	 2.678	  0.805	       41.827	 0.004	 0.175	   0.028	 0.244	     	    	   	       	       	        	       	   1.000
	     39	        US19	  mg/l	    pe	 21.800	 7.000	  9.900	 10.485	 2.075	  9.112	 2.542	  0.832	       40.679	 0.004	 0.157	   0.028	 0.362	     	    	   	       	       	        	       	   1.000
	     40	        US20	  mg/l	    pe	 21.800	 7.100	  9.898	 10.761	 2.119	 10.331	 2.733	  0.913	       42.319	 0.004	 0.163	   0.029	 0.236	     	    	   	       	       	        	       	   1.000
	     41	        US21	  mg/l	    pe	 21.800	 7.100	  9.897	 10.498	 2.074	 12.315	 2.152	  0.898	       41.663	 0.004	 0.168	   0.029	 0.408	     	    	   	       	       	        	       	   1.000
	     42	        US22	  mg/l	    pe	 21.900	 7.000	  9.842	 10.869	 2.124	  8.973	 2.916	  0.830	       42.975	 0.007	 0.147	   0.028	 0.285	     	    	   	       	       	        	       	   1.000
	     43	        US23	  mg/l	    pe	 21.900	 7.000	  9.856	 10.979	 2.158	  9.470	 3.069	  0.867	       41.499	 0.006	 0.167	   0.029	 0.369	     	    	   	       	       	        	       	   1.000
	     44	        US24	  mg/l	    pe	 21.900	 7.100	  9.863	 10.872	 2.136	  9.337	 3.092	  0.871	       40.515	 0.004	 0.171	   0.027	 0.347	     	    	   	       	       	        	       	   1.000
	     45	        US25	  mg/l	    pe	 21.900	 7.100	  9.888	 10.832	 2.164	  9.334	 3.173	  0.728	       43.304	 0.004	 0.180	   0.027	 0.338	     	    	   	       	       	        	       	   1.000
	     46	          W0	  mg/l	    pe	 22.400	 5.300	  7.000	  1.835	 0.309	  2.277	 0.447	  0.549	        3.773	 0.001	 0.001	   0.006	 0.029	     	    	   	       	       	        	       	   1.000
	     47	          W2	  mg/l	    pe	 22.200	 4.000	  9.356	 10.213	 1.963	  6.635	 2.851	  1.110	       40.843	 0.031	 0.073	   0.027	 0.475	     	    	   	       	       	        	       	   1.000
	     48	          W3	  mg/l	    pe	 23.000	 5.700	  9.525	  8.582	 1.320	  3.845	 1.522	  2.561	       23.374	 2.594	 2.899	   0.015	      	     	    	   	       	       	        	       	   1.000
	     49	          W5	  mg/l	    pe	 22.300	 6.600	  7.051	 10.565	 1.807	  6.294	 2.437	  2.202	       36.168	 0.088	 0.090	   0.023	 0.211	     	    	   	       	       	        	       	   1.000
	     50	          R1	  mg/l	    pe	 23.700	 5.030	 10.520	  0.299	 0.076	  5.169	 0.109	  0.660	        0.000	 0.011	 0.292	   0.005	 0.242	     	    	   	       	       	        	       	   1.000
	     51	          R2	  mg/l	    pe	 23.700	 5.030	 10.520	  0.225	 0.045	  2.519	 0.142	  0.413	        0.000	      	      	        	 0.164	     	    	   	       	       	        	       	   1.000
	     52	       SPBOX	  mg/l	    pe	 22.300	 7.350	    4.2	  6.015	 1.061	  5.907	 2.441	  0.670	       29.443	      	      	   0.018	 0.581	     	    	   	       	       	        	       	   1.000
	     53	        USUP	  mg/l	    pe	 22.600	 7.300	    4.2	  8.475	 1.514	 10.046	 1.824	  0.784	       33.954	 0.060	 0.166	   0.025	 0.366	     	    	   	       	       	        	       	   1.000
	INVERSE_MODELING 1
	    solutions      31       6
	    uncertainty    0.05     0.05
	    phases
	        Al(OH)3(a)
	        Goethite
	        Gibbsite
	        Kaolinite
	        K-feldspar
	        K-mica
	        CO2(g)            pre
	        Fe(OH)3(a)
	        NH3(g)
	        NH4X              dis
	        N2(g)             pre
	        CH2O              dis
	    balances
	        Alkalinity  0.05     0.05
	        C           0.05     0.05
	        Ca          0.05     0.05
	        Mg          0.05     0.05
	        Na          0.05     0.05
	        N(0)        0.05     0.05
	        N(3)        0.05     0.05
	        N(-3)       0.05     0.05
	        N(5)        0.05     0.05
	        N           0.05     0.05
	        Fe          0.05     0.05
	        Al          0.05     0.05
	        S(6)        0.05     0.05
	    tolerance         1e-10
	    mineral_water     true
	    lon_netpath netpath
	    pat_netpath netpath
	PHASES
	CH2O
	    CH2O+H2O=CO2+4H++4e-
	    log_k     0
	END
-------------------------------------------
Beginning of initial solution calculations.
-------------------------------------------

Initial solution 1.	 DS01 

-----------------------------Solution composition------------------------------

	Elements           Molality       Moles

	Alkalinity        7.507e-04   7.507e-04
	Ca                2.611e-04   2.611e-04
	K                 8.021e-05   8.021e-05
	Mg                8.437e-05   8.437e-05
	N(5)              8.996e-06   8.996e-06
	Na                3.149e-04   3.149e-04
	S(6)              8.224e-06   8.224e-06

----------------------------Description of solution----------------------------

                                       pH  =   7.400    
                                       pe  =   8.068    
      Specific Conductance (µS/cm,  22°C)  = 85
                          Density (g/cm³)  =   0.99778
                               Volume (L)  =   1.00230
                        Activity of water  =   1.000
                 Ionic strength (mol/kgw)  =   1.278e-03
                       Mass of water (kg)  =   1.000e+00
                    Total carbon (mol/kg)  =   8.157e-04
                       Total CO2 (mol/kg)  =   8.157e-04
                         Temperature (°C)  =  22.20
                  Electrical balance (eq)  =   3.100e-04
 Percent error, 100*(Cat-|An|)/(Cat+|An|)  =  16.72
                               Iterations  =   8
                                  Total H  = 1.110132e+02
                                  Total O  = 5.550866e+01

----------------------------Distribution of species----------------------------

                                               Log       Log       Log    mole V
   Species          Molality    Activity  Molality  Activity     Gamma   cm³/mol

   OH-             2.131e-07   2.047e-07    -6.671    -6.689    -0.017     -4.22
   H+              4.134e-08   3.981e-08    -7.384    -7.400    -0.016      0.00
   H2O             5.551e+01   1.000e+00     1.744    -0.000     0.000     18.06
C(4)          8.157e-04
   HCO3-           7.452e-04   7.165e-04    -3.128    -3.145    -0.017     24.47
   CO2             6.652e-05   6.654e-05    -4.177    -4.177     0.000     34.30
   CaHCO3+         2.007e-06   1.930e-06    -5.698    -5.714    -0.017      9.57
   CO3-2           9.315e-07   7.960e-07    -6.031    -6.099    -0.068     -5.49
   MgHCO3+         6.165e-07   5.924e-07    -6.210    -6.227    -0.017      5.40
   CaCO3           2.800e-07   2.800e-07    -6.553    -6.553     0.000    -14.61
   NaHCO3          1.238e-07   1.239e-07    -6.907    -6.907     0.000      1.80
   MgCO3           5.200e-08   5.202e-08    -7.284    -7.284     0.000    -17.09
   NaCO3-          4.047e-09   3.889e-09    -8.393    -8.410    -0.017     -1.29
   (CO2)2          7.396e-11   7.398e-11   -10.131   -10.131     0.000     68.59
Ca            2.611e-04
   Ca+2            2.585e-04   2.209e-04    -3.587    -3.656    -0.068    -18.16
   CaHCO3+         2.007e-06   1.930e-06    -5.698    -5.714    -0.017      9.57
   CaCO3           2.800e-07   2.800e-07    -6.553    -6.553     0.000    -14.61
   CaSO4           2.576e-07   2.577e-07    -6.589    -6.589     0.000      7.39
   CaOH+           9.583e-10   9.208e-10    -9.018    -9.036    -0.017     (0)  
   CaHSO4+         6.749e-14   6.485e-14   -13.171   -13.188    -0.017     (0)  
H(0)          1.687e-34
   H2              8.435e-35   8.438e-35   -34.074   -34.074     0.000     28.61
K             8.021e-05
   K+              8.020e-05   7.705e-05    -4.096    -4.113    -0.017      8.92
   KSO4-           3.592e-09   3.453e-09    -8.445    -8.462    -0.017     34.03
Mg            8.437e-05
   Mg+2            8.359e-05   7.149e-05    -4.078    -4.146    -0.068    -21.71
   MgHCO3+         6.165e-07   5.924e-07    -6.210    -6.227    -0.017      5.40
   MgSO4           1.044e-07   1.044e-07    -6.981    -6.981     0.000      5.73
   MgCO3           5.200e-08   5.202e-08    -7.284    -7.284     0.000    -17.09
   MgOH+           5.251e-09   5.051e-09    -8.280    -8.297    -0.017     (0)  
N(5)          8.996e-06
   NO3-            8.996e-06   8.640e-06    -5.046    -5.063    -0.018     29.22
Na            3.149e-04
   Na+             3.148e-04   3.026e-04    -3.502    -3.519    -0.017     -1.62
   NaHCO3          1.238e-07   1.239e-07    -6.907    -6.907     0.000      1.80
   NaSO4-          1.038e-08   9.982e-09    -7.984    -8.001    -0.017     13.85
   NaCO3-          4.047e-09   3.889e-09    -8.393    -8.410    -0.017     -1.29
   NaOH            6.193e-21   6.195e-21   -20.208   -20.208     0.000     (0)  
O(0)          1.433e-25
   O2              7.165e-26   7.167e-26   -25.145   -25.145     0.000     30.17
S(6)          8.224e-06
   SO4-2           7.848e-06   6.701e-06    -5.105    -5.174    -0.069     14.15
   CaSO4           2.576e-07   2.577e-07    -6.589    -6.589     0.000      7.39
   MgSO4           1.044e-07   1.044e-07    -6.981    -6.981     0.000      5.73
   NaSO4-          1.038e-08   9.982e-09    -7.984    -8.001    -0.017     13.85
   KSO4-           3.592e-09   3.453e-09    -8.445    -8.462    -0.017     34.03
   HSO4-           2.541e-11   2.442e-11   -10.595   -10.612    -0.017     40.08
   CaHSO4+         6.749e-14   6.485e-14   -13.171   -13.188    -0.017     (0)  

------------------------------Saturation indices-------------------------------

  Phase               SI** log IAP   log K(295 K,   1 atm)

  Anhydrite        -4.58     -8.83   -4.25  CaSO4
  Aragonite        -1.44     -9.75   -8.32  CaCO3
  Calcite          -1.29     -9.75   -8.46  CaCO3
  CH2O            -66.05    -66.05    0.00  CH2O
  CO2(g)           -2.74     -4.18   -1.43  CO2
  Dolomite         -2.98    -20.00  -17.02  CaMg(CO3)2
  Gypsum           -4.25     -8.83   -4.58  CaSO4:2H2O
  H2(g)           -30.98    -34.07   -3.09  H2
  H2O(g)           -1.58     -0.00    1.58  H2O
  O2(g)           -22.27    -25.14   -2.87  O2

**For a gas, SI = log10(fugacity). Fugacity = pressure * phi / 1 atm.
  For ideal gases, phi = 1.

Initial solution 2.	 DS02 

-----------------------------Solution composition------------------------------

	Elements           Molality       Moles

	Alkalinity        7.244e-04   7.244e-04
	Ca                2.436e-04   2.436e-04
	K                 6.673e-05   6.673e-05
	Mg                8.005e-05   8.005e-05
	N(5)              2.171e-05   2.171e-05
	Na                3.812e-04   3.812e-04
	S(6)              1.138e-05   1.138e-05

----------------------------Description of solution----------------------------

                                       pH  =   7.400    
                                       pe  =   8.068    
      Specific Conductance (µS/cm,  22°C)  = 86
                          Density (g/cm³)  =   0.99778
                               Volume (L)  =   1.00230
                        Activity of water  =   1.000
                 Ionic strength (mol/kgw)  =   1.260e-03
                       Mass of water (kg)  =   1.000e+00
                    Total carbon (mol/kg)  =   7.873e-04
                       Total CO2 (mol/kg)  =   7.873e-04
                         Temperature (°C)  =  22.20
                  Electrical balance (eq)  =   3.263e-04
 Percent error, 100*(Cat-|An|)/(Cat+|An|)  =  17.58
                               Iterations  =   8 (16 overall)
                                  Total H  = 1.110132e+02
                                  Total O  = 5.550863e+01

----------------------------Distribution of species----------------------------

                                               Log       Log       Log    mole V
   Species          Molality    Activity  Molality  Activity     Gamma   cm³/mol

   OH-             2.131e-07   2.047e-07    -6.671    -6.689    -0.017     -4.22
   H+              4.133e-08   3.981e-08    -7.384    -7.400    -0.016      0.00
   H2O             5.551e+01   1.000e+00     1.744    -0.000     0.000     18.06
C(4)          7.873e-04
   HCO3-           7.193e-04   6.918e-04    -3.143    -3.160    -0.017     24.47
   CO2             6.423e-05   6.424e-05    -4.192    -4.192     0.000     34.30
   CaHCO3+         1.808e-06   1.740e-06    -5.743    -5.760    -0.017      9.57
   CO3-2           8.985e-07   7.686e-07    -6.046    -6.114    -0.068     -5.50
   MgHCO3+         5.651e-07   5.431e-07    -6.248    -6.265    -0.017      5.40
   CaCO3           2.524e-07   2.525e-07    -6.598    -6.598     0.000    -14.61
   NaHCO3          1.448e-07   1.448e-07    -6.839    -6.839     0.000      1.80
   MgCO3           4.767e-08   4.769e-08    -7.322    -7.322     0.000    -17.09
   NaCO3-          4.730e-09   4.546e-09    -8.325    -8.342    -0.017     -1.29
   (CO2)2          6.895e-11   6.897e-11   -10.161   -10.161     0.000     68.59
Ca            2.436e-04
   Ca+2            2.412e-04   2.063e-04    -3.618    -3.686    -0.068    -18.16
   CaHCO3+         1.808e-06   1.740e-06    -5.743    -5.760    -0.017      9.57
   CaSO4           3.340e-07   3.341e-07    -6.476    -6.476     0.000      7.39
   CaCO3           2.524e-07   2.525e-07    -6.598    -6.598     0.000    -14.61
   CaOH+           8.945e-10   8.598e-10    -9.048    -9.066    -0.017     (0)  
   CaHSO4+         8.746e-14   8.407e-14   -13.058   -13.075    -0.017     (0)  
H(0)          1.687e-34
   H2              8.435e-35   8.438e-35   -34.074   -34.074     0.000     28.61
K             6.673e-05
   K+              6.672e-05   6.412e-05    -4.176    -4.193    -0.017      8.92
   KSO4-           4.149e-09   3.990e-09    -8.382    -8.399    -0.017     34.03
Mg            8.005e-05
   Mg+2            7.929e-05   6.788e-05    -4.101    -4.168    -0.067    -21.71
   MgHCO3+         5.651e-07   5.431e-07    -6.248    -6.265    -0.017      5.40
   MgSO4           1.376e-07   1.377e-07    -6.861    -6.861     0.000      5.73
   MgCO3           4.767e-08   4.769e-08    -7.322    -7.322     0.000    -17.09
   MgOH+           4.985e-09   4.796e-09    -8.302    -8.319    -0.017     (0)  
N(5)          2.171e-05
   NO3-            2.171e-05   2.085e-05    -4.663    -4.681    -0.017     29.22
Na            3.812e-04
   Na+             3.811e-04   3.664e-04    -3.419    -3.436    -0.017     -1.63
   NaHCO3          1.448e-07   1.448e-07    -6.839    -6.839     0.000      1.80
   NaSO4-          1.745e-08   1.678e-08    -7.758    -7.775    -0.017     13.85
   NaCO3-          4.730e-09   4.546e-09    -8.325    -8.342    -0.017     -1.29
   NaOH            7.498e-21   7.501e-21   -20.125   -20.125     0.000     (0)  
O(0)          1.433e-25
   O2              7.165e-26   7.167e-26   -25.145   -25.145     0.000     30.17
S(6)          1.138e-05
   SO4-2           1.089e-05   9.304e-06    -4.963    -5.031    -0.068     14.15
   CaSO4           3.340e-07   3.341e-07    -6.476    -6.476     0.000      7.39
   MgSO4           1.376e-07   1.377e-07    -6.861    -6.861     0.000      5.73
   NaSO4-          1.745e-08   1.678e-08    -7.758    -7.775    -0.017     13.85
   KSO4-           4.149e-09   3.990e-09    -8.382    -8.399    -0.017     34.03
   HSO4-           3.527e-11   3.390e-11   -10.453   -10.470    -0.017     40.08
   CaHSO4+         8.746e-14   8.407e-14   -13.058   -13.075    -0.017     (0)  

------------------------------Saturation indices-------------------------------

  Phase               SI** log IAP   log K(295 K,   1 atm)

  Anhydrite        -4.47     -8.72   -4.25  CaSO4
  Aragonite        -1.48     -9.80   -8.32  CaCO3
  Calcite          -1.34     -9.80   -8.46  CaCO3
  CH2O            -66.06    -66.06    0.00  CH2O
  CO2(g)           -2.76     -4.19   -1.43  CO2
  Dolomite         -3.06    -20.08  -17.02  CaMg(CO3)2
  Gypsum           -4.13     -8.72   -4.58  CaSO4:2H2O
  H2(g)           -30.98    -34.07   -3.09  H2
  H2O(g)           -1.58     -0.00    1.58  H2O
  O2(g)           -22.27    -25.14   -2.87  O2

**For a gas, SI = log10(fugacity). Fugacity = pressure * phi / 1 atm.
  For ideal gases, phi = 1.

Initial solution 3.	 DS03 

-----------------------------Solution composition------------------------------

	Elements           Molality       Moles

	Alkalinity        9.277e-04   9.277e-04
	Ca                2.461e-04   2.461e-04
	K                 6.568e-05   6.568e-05
	Mg                8.136e-05   8.136e-05
	N(5)              1.871e-05   1.871e-05
	Na                3.065e-04   3.065e-04
	S(6)              9.120e-06   9.120e-06

----------------------------Description of solution----------------------------

                                       pH  =   7.400    
                                       pe  =   8.068    
      Specific Conductance (µS/cm,  22°C)  = 90
                          Density (g/cm³)  =   0.99779
                               Volume (L)  =   1.00230
                        Activity of water  =   1.000
                 Ionic strength (mol/kgw)  =   1.325e-03
                       Mass of water (kg)  =   1.000e+00
                    Total carbon (mol/kg)  =   1.008e-03
                       Total CO2 (mol/kg)  =   1.008e-03
                         Temperature (°C)  =  22.20
                  Electrical balance (eq)  =   6.254e-05
 Percent error, 100*(Cat-|An|)/(Cat+|An|)  =   3.15
                               Iterations  =   7 (23 overall)
                                  Total H  = 1.110134e+02
                                  Total O  = 5.550925e+01

----------------------------Distribution of species----------------------------

                                               Log       Log       Log    mole V
   Species          Molality    Activity  Molality  Activity     Gamma   cm³/mol

   OH-             2.133e-07   2.047e-07    -6.671    -6.689    -0.018     -4.22
   H+              4.137e-08   3.981e-08    -7.383    -7.400    -0.017      0.00
   H2O             5.551e+01   1.000e+00     1.744    -0.000     0.000     18.06
C(4)          1.008e-03
   HCO3-           9.212e-04   8.851e-04    -3.036    -3.053    -0.017     24.47
   CO2             8.217e-05   8.220e-05    -4.085    -4.085     0.000     34.30
   CaHCO3+         2.327e-06   2.236e-06    -5.633    -5.650    -0.017      9.57
   CO3-2           1.154e-06   9.834e-07    -5.938    -6.007    -0.069     -5.49
   MgHCO3+         7.316e-07   7.025e-07    -6.136    -6.153    -0.018      5.40
   CaCO3           3.244e-07   3.245e-07    -6.489    -6.489     0.000    -14.61
   NaHCO3          1.488e-07   1.488e-07    -6.827    -6.827     0.000      1.80
   MgCO3           6.166e-08   6.168e-08    -7.210    -7.210     0.000    -17.09
   NaCO3-          4.866e-09   4.673e-09    -8.313    -8.330    -0.018     -1.29
   (CO2)2          1.129e-10   1.129e-10    -9.947    -9.947     0.000     68.59
Ca            2.461e-04
   Ca+2            2.432e-04   2.072e-04    -3.614    -3.684    -0.070    -18.16
   CaHCO3+         2.327e-06   2.236e-06    -5.633    -5.650    -0.017      9.57
   CaCO3           3.244e-07   3.245e-07    -6.489    -6.489     0.000    -14.61
   CaSO4           2.680e-07   2.681e-07    -6.572    -6.572     0.000      7.39
   CaOH+           8.995e-10   8.638e-10    -9.046    -9.064    -0.018     (0)  
   CaHSO4+         7.024e-14   6.745e-14   -13.153   -13.171    -0.018     (0)  
H(0)          1.687e-34
   H2              8.435e-35   8.438e-35   -34.074   -34.074     0.000     28.61
K             6.568e-05
   K+              6.568e-05   6.305e-05    -4.183    -4.200    -0.018      8.92
   KSO4-           3.261e-09   3.134e-09    -8.487    -8.504    -0.017     34.03
Mg            8.136e-05
   Mg+2            8.046e-05   6.862e-05    -4.094    -4.164    -0.069    -21.70
   MgHCO3+         7.316e-07   7.025e-07    -6.136    -6.153    -0.018      5.40
   MgSO4           1.111e-07   1.111e-07    -6.954    -6.954     0.000      5.73
   MgCO3           6.166e-08   6.168e-08    -7.210    -7.210     0.000    -17.09
   MgOH+           5.044e-09   4.849e-09    -8.297    -8.314    -0.017     (0)  
N(5)          1.871e-05
   NO3-            1.871e-05   1.795e-05    -4.728    -4.746    -0.018     29.22
Na            3.065e-04
   Na+             3.064e-04   2.943e-04    -3.514    -3.531    -0.018     -1.62
   NaHCO3          1.488e-07   1.488e-07    -6.827    -6.827     0.000      1.80
   NaSO4-          1.120e-08   1.076e-08    -7.951    -7.968    -0.017     13.86
   NaCO3-          4.866e-09   4.673e-09    -8.313    -8.330    -0.018     -1.29
   NaOH            6.023e-21   6.025e-21   -20.220   -20.220     0.000     (0)  
O(0)          1.433e-25
   O2              7.165e-26   7.167e-26   -25.145   -25.145     0.000     30.17
S(6)          9.120e-06
   SO4-2           8.726e-06   7.431e-06    -5.059    -5.129    -0.070     14.15
   CaSO4           2.680e-07   2.681e-07    -6.572    -6.572     0.000      7.39
   MgSO4           1.111e-07   1.111e-07    -6.954    -6.954     0.000      5.73
   NaSO4-          1.120e-08   1.076e-08    -7.951    -7.968    -0.017     13.86
   KSO4-           3.261e-09   3.134e-09    -8.487    -8.504    -0.017     34.03
   HSO4-           2.820e-11   2.708e-11   -10.550   -10.567    -0.018     40.08
   CaHSO4+         7.024e-14   6.745e-14   -13.153   -13.171    -0.018     (0)  

------------------------------Saturation indices-------------------------------

  Phase               SI** log IAP   log K(295 K,   1 atm)

  Anhydrite        -4.57     -8.81   -4.25  CaSO4
  Aragonite        -1.37     -9.69   -8.32  CaCO3
  Calcite          -1.23     -9.69   -8.46  CaCO3
  CH2O            -65.96    -65.96    0.00  CH2O
  CO2(g)           -2.65     -4.09   -1.43  CO2
  Dolomite         -2.84    -19.86  -17.02  CaMg(CO3)2
  Gypsum           -4.23     -8.81   -4.58  CaSO4:2H2O
  H2(g)           -30.98    -34.07   -3.09  H2
  H2O(g)           -1.58     -0.00    1.58  H2O
  O2(g)           -22.27    -25.14   -2.87  O2

**For a gas, SI = log10(fugacity). Fugacity = pressure * phi / 1 atm.
  For ideal gases, phi = 1.

Initial solution 4.	 DS09 

-----------------------------Solution composition------------------------------

	Elements           Molality       Moles

	Alkalinity        6.884e-04   6.884e-04
	Ca                2.363e-04   2.363e-04
	K                 6.361e-05   6.361e-05
	Mg                7.746e-05   7.746e-05
	N(5)              1.728e-05   1.728e-05
	Na                3.607e-04   3.607e-04
	S(6)              1.042e-05   1.042e-05

----------------------------Description of solution----------------------------

                                       pH  =   7.600    
                                       pe  =   6.903    
      Specific Conductance (µS/cm,  22°C)  = 82
                          Density (g/cm³)  =   0.99780
                               Volume (L)  =   1.00227
                        Activity of water  =   1.000
                 Ionic strength (mol/kgw)  =   1.207e-03
                       Mass of water (kg)  =   1.000e+00
                    Total carbon (mol/kg)  =   7.248e-04
                       Total CO2 (mol/kg)  =   7.248e-04
                         Temperature (°C)  =  22.10
                  Electrical balance (eq)  =   3.253e-04
 Percent error, 100*(Cat-|An|)/(Cat+|An|)  =  18.38
                               Iterations  =   8 (31 overall)
                                  Total H  = 1.110131e+02
                                  Total O  = 5.550845e+01

----------------------------Distribution of species----------------------------

                                               Log       Log       Log    mole V
   Species          Molality    Activity  Molality  Activity     Gamma   cm³/mol

   OH-             3.348e-07   3.219e-07    -6.475    -6.492    -0.017     -4.22
   H+              2.606e-08   2.512e-08    -7.584    -7.600    -0.016      0.00
   H2O             5.551e+01   1.000e+00     1.744    -0.000     0.000     18.06
C(4)          7.248e-04
   HCO3-           6.822e-04   6.566e-04    -3.166    -3.183    -0.017     24.46
   CO2             3.851e-05   3.853e-05    -4.414    -4.414     0.000     34.29
   CaHCO3+         1.666e-06   1.604e-06    -5.778    -5.795    -0.017      9.56
   CO3-2           1.344e-06   1.154e-06    -5.872    -5.938    -0.066     -5.51
   MgHCO3+         5.200e-07   5.002e-07    -6.284    -6.301    -0.017      5.40
   CaCO3           3.680e-07   3.681e-07    -6.434    -6.434     0.000    -14.61
   NaHCO3          1.302e-07   1.302e-07    -6.885    -6.885     0.000      1.80
   MgCO3           6.936e-08   6.938e-08    -7.159    -7.159     0.000    -17.09
   NaCO3-          6.682e-09   6.428e-09    -8.175    -8.192    -0.017     -1.31
   (CO2)2          2.471e-11   2.472e-11   -10.607   -10.607     0.000     68.58
Ca            2.363e-04
   Ca+2            2.340e-04   2.007e-04    -3.631    -3.697    -0.067    -18.16
   CaHCO3+         1.666e-06   1.604e-06    -5.778    -5.795    -0.017      9.56
   CaCO3           3.680e-07   3.681e-07    -6.434    -6.434     0.000    -14.61
   CaSO4           2.988e-07   2.988e-07    -6.525    -6.525     0.000      7.39
   CaOH+           1.379e-09   1.326e-09    -8.861    -8.877    -0.017     (0)  
   CaHSO4+         4.926e-14   4.738e-14   -13.308   -13.324    -0.017     (0)  
H(0)          1.437e-32
   H2              7.187e-33   7.189e-33   -32.143   -32.143     0.000     28.61
K             6.361e-05
   K+              6.360e-05   6.117e-05    -4.197    -4.213    -0.017      8.91
   KSO4-           3.631e-09   3.495e-09    -8.440    -8.457    -0.017     34.03
Mg            7.746e-05
   Mg+2            7.674e-05   6.590e-05    -4.115    -4.181    -0.066    -21.70
   MgHCO3+         5.200e-07   5.002e-07    -6.284    -6.301    -0.017      5.40
   MgSO4           1.226e-07   1.226e-07    -6.912    -6.912     0.000      5.72
   MgCO3           6.936e-08   6.938e-08    -7.159    -7.159     0.000    -17.09
   MgOH+           7.593e-09   7.312e-09    -8.120    -8.136    -0.016     (0)  
N(5)          1.728e-05
   NO3-            1.728e-05   1.661e-05    -4.762    -4.780    -0.017     29.20
Na            3.607e-04
   Na+             3.605e-04   3.469e-04    -3.443    -3.460    -0.017     -1.63
   NaHCO3          1.302e-07   1.302e-07    -6.885    -6.885     0.000      1.80
   NaSO4-          1.517e-08   1.460e-08    -7.819    -7.836    -0.017     13.85
   NaCO3-          6.682e-09   6.428e-09    -8.175    -8.192    -0.017     -1.31
   NaOH            1.116e-20   1.117e-20   -19.952   -19.952     0.000     (0)  
O(0)          1.830e-29
   O2              9.150e-30   9.153e-30   -29.039   -29.038     0.000     30.17
S(6)          1.042e-05
   SO4-2           9.981e-06   8.558e-06    -5.001    -5.068    -0.067     14.13
   CaSO4           2.988e-07   2.988e-07    -6.525    -6.525     0.000      7.39
   MgSO4           1.226e-07   1.226e-07    -6.912    -6.912     0.000      5.72
   NaSO4-          1.517e-08   1.460e-08    -7.819    -7.836    -0.017     13.85
   KSO4-           3.631e-09   3.495e-09    -8.440    -8.457    -0.017     34.03
   HSO4-           2.041e-11   1.963e-11   -10.690   -10.707    -0.017     40.07
   CaHSO4+         4.926e-14   4.738e-14   -13.308   -13.324    -0.017     (0)  

------------------------------Saturation indices-------------------------------

  Phase               SI** log IAP   log K(295 K,   1 atm)

  Anhydrite        -4.52     -8.77   -4.25  CaSO4
  Aragonite        -1.32     -9.64   -8.32  CaCO3
  Calcite          -1.17     -9.64   -8.46  CaCO3
  CH2O            -62.43    -62.43    0.00  CH2O
  CO2(g)           -2.98     -4.41   -1.43  CO2
  Dolomite         -2.73    -19.75  -17.02  CaMg(CO3)2
  Gypsum           -4.18     -8.77   -4.58  CaSO4:2H2O
  H2(g)           -29.05    -32.14   -3.09  H2
  H2O(g)           -1.58     -0.00    1.58  H2O
  O2(g)           -26.17    -29.04   -2.87  O2

**For a gas, SI = log10(fugacity). Fugacity = pressure * phi / 1 atm.
  For ideal gases, phi = 1.

Initial solution 5.	 DS10 

-----------------------------Solution composition------------------------------

	Elements           Molality       Moles

	Al                1.001e-05   1.001e-05
	Alkalinity        7.244e-04   7.244e-04
	Ca                2.468e-04   2.468e-04
	Fe                3.044e-07   3.044e-07
	K                 8.018e-05   8.018e-05
	Mg                8.136e-05   8.136e-05
	N(5)              1.749e-05   1.749e-05
	Na                2.874e-04   2.874e-04
	S(6)              9.432e-06   9.432e-06
	Si                9.654e-07   9.654e-07

----------------------------Description of solution----------------------------

                                       pH  =   7.600    
                                       pe  =   6.903    
      Specific Conductance (µS/cm,  22°C)  = 80
                          Density (g/cm³)  =   0.99780
                               Volume (L)  =   1.00227
                        Activity of water  =   1.000
                 Ionic strength (mol/kgw)  =   1.209e-03
                       Mass of water (kg)  =   1.000e+00
                    Total carbon (mol/kg)  =   7.205e-04
                       Total CO2 (mol/kg)  =   7.205e-04
                         Temperature (°C)  =  22.10
                  Electrical balance (eq)  =   2.935e-04
 Percent error, 100*(Cat-|An|)/(Cat+|An|)  =  16.81
                               Iterations  =   8 (39 overall)
                                  Total H  = 1.110132e+02
                                  Total O  = 5.550847e+01

----------------------------Distribution of species----------------------------

                                               Log       Log       Log    mole V
   Species          Molality    Activity  Molality  Activity     Gamma   cm³/mol

   OH-             3.348e-07   3.219e-07    -6.475    -6.492    -0.017     -4.22
   H+              2.606e-08   2.512e-08    -7.584    -7.600    -0.016      0.00
   H2O             5.551e+01   1.000e+00     1.744    -0.000     0.000     18.06
Al            1.001e-05
   Al(OH)4-        9.847e-06   9.474e-06    -5.007    -5.023    -0.017     (0)  
   Al(OH)3         1.310e-07   1.310e-07    -6.883    -6.883     0.000     (0)  
   Al(OH)2+        2.885e-08   2.777e-08    -7.540    -7.556    -0.017     (0)  
   AlOH+2          1.342e-10   1.151e-10    -9.872    -9.939    -0.066    -27.64
   Al+3            4.904e-13   3.520e-13   -12.309   -12.453    -0.144    -42.06
   AlSO4+          8.614e-15   8.287e-15   -14.065   -14.082    -0.017     (0)  
   Al(SO4)2-       2.078e-18   1.999e-18   -17.682   -17.699    -0.017     (0)  
   AlHSO4+2        2.104e-23   1.801e-23   -22.677   -22.744    -0.067     (0)  
C(4)          7.205e-04
   HCO3-           6.780e-04   6.526e-04    -3.169    -3.185    -0.017     24.46
   CO2             3.828e-05   3.829e-05    -4.417    -4.417     0.000     34.29
   CaHCO3+         1.730e-06   1.665e-06    -5.762    -5.778    -0.017      9.56
   CO3-2           1.336e-06   1.147e-06    -5.874    -5.941    -0.066     -5.51
   MgHCO3+         5.430e-07   5.223e-07    -6.265    -6.282    -0.017      5.40
   CaCO3           3.821e-07   3.822e-07    -6.418    -6.418     0.000    -14.61
   NaHCO3          1.031e-07   1.031e-07    -6.987    -6.987     0.000      1.80
   MgCO3           7.243e-08   7.245e-08    -7.140    -7.140     0.000    -17.09
   NaCO3-          5.294e-09   5.092e-09    -8.276    -8.293    -0.017     -1.31
   (CO2)2          2.441e-11   2.442e-11   -10.612   -10.612     0.000     68.58
   FeHCO3+         2.181e-12   2.098e-12   -11.661   -11.678    -0.017     (0)  
   FeCO3           8.839e-13   8.842e-13   -12.054   -12.053     0.000     (0)  
Ca            2.468e-04
   Ca+2            2.444e-04   2.097e-04    -3.612    -3.678    -0.067    -18.16
   CaHCO3+         1.730e-06   1.665e-06    -5.762    -5.778    -0.017      9.56
   CaCO3           3.821e-07   3.822e-07    -6.418    -6.418     0.000    -14.61
   CaSO4           2.820e-07   2.820e-07    -6.550    -6.550     0.000      7.39
   CaOH+           1.440e-09   1.385e-09    -8.842    -8.858    -0.017     (0)  
   CaHSO4+         4.649e-14   4.472e-14   -13.333   -13.350    -0.017     (0)  
Fe(2)         4.087e-11
   Fe+2            3.743e-11   3.215e-11   -10.427   -10.493    -0.066    -22.31
   FeHCO3+         2.181e-12   2.098e-12   -11.661   -11.678    -0.017     (0)  
   FeCO3           8.839e-13   8.842e-13   -12.054   -12.053     0.000     (0)  
   FeOH+           3.379e-13   3.251e-13   -12.471   -12.488    -0.017     (0)  
   FeSO4           4.189e-14   4.190e-14   -13.378   -13.378     0.000     22.13
   Fe(OH)2         8.537e-17   8.540e-17   -16.069   -16.069     0.000     (0)  
   Fe(OH)3-        1.275e-19   1.227e-19   -18.894   -18.911    -0.017     (0)  
   FeHSO4+         7.127e-21   6.856e-21   -20.147   -20.164    -0.017     (0)  
Fe(3)         3.044e-07
   Fe(OH)3         2.408e-07   2.409e-07    -6.618    -6.618     0.000     (0)  
   Fe(OH)2+        5.545e-08   5.337e-08    -7.256    -7.273    -0.017     (0)  
   Fe(OH)4-        8.079e-09   7.776e-09    -8.093    -8.109    -0.017     (0)  
   FeOH+2          5.276e-12   4.524e-12   -11.278   -11.344    -0.067     (0)  
   Fe+3            2.914e-17   2.091e-17   -16.536   -16.680    -0.144     (0)  
   FeSO4+          1.727e-18   1.662e-18   -17.763   -17.779    -0.017     (0)  
   Fe2(OH)2+4      1.158e-21   6.218e-22   -20.936   -21.206    -0.270     (0)  
   Fe(SO4)2-       2.889e-22   2.779e-22   -21.539   -21.556    -0.017     (0)  
   FeHSO4+2        1.309e-25   1.120e-25   -24.883   -24.951    -0.067     (0)  
   Fe3(OH)4+5      2.399e-26   9.085e-27   -25.620   -26.042    -0.422     (0)  
H(0)          1.437e-32
   H2              7.187e-33   7.189e-33   -32.143   -32.143     0.000     28.61
K             8.018e-05
   K+              8.018e-05   7.711e-05    -4.096    -4.113    -0.017      8.91
   KSO4-           4.136e-09   3.981e-09    -8.383    -8.400    -0.017     34.03
Mg            8.136e-05
   Mg+2            8.062e-05   6.923e-05    -4.094    -4.160    -0.066    -21.70
   MgHCO3+         5.430e-07   5.223e-07    -6.265    -6.282    -0.017      5.40
   MgSO4           1.163e-07   1.164e-07    -6.934    -6.934     0.000      5.72
   MgCO3           7.243e-08   7.245e-08    -7.140    -7.140     0.000    -17.09
   MgOH+           7.977e-09   7.681e-09    -8.098    -8.115    -0.016     (0)  
N(5)          1.749e-05
   NO3-            1.749e-05   1.682e-05    -4.757    -4.774    -0.017     29.20
Na            2.874e-04
   Na+             2.873e-04   2.765e-04    -3.542    -3.558    -0.017     -1.63
   NaHCO3          1.031e-07   1.031e-07    -6.987    -6.987     0.000      1.80
   NaSO4-          1.093e-08   1.052e-08    -7.962    -7.978    -0.017     13.85
   NaCO3-          5.294e-09   5.092e-09    -8.276    -8.293    -0.017     -1.31
   NaOH            8.898e-21   8.900e-21   -20.051   -20.051     0.000     (0)  
O(0)          1.830e-29
   O2              9.150e-30   9.153e-30   -29.039   -29.038     0.000     30.17
S(6)          9.432e-06
   SO4-2           9.018e-06   7.732e-06    -5.045    -5.112    -0.067     14.13
   CaSO4           2.820e-07   2.820e-07    -6.550    -6.550     0.000      7.39
   MgSO4           1.163e-07   1.164e-07    -6.934    -6.934     0.000      5.72
   NaSO4-          1.093e-08   1.052e-08    -7.962    -7.978    -0.017     13.85
   KSO4-           4.136e-09   3.981e-09    -8.383    -8.400    -0.017     34.03
   HSO4-           1.844e-11   1.774e-11   -10.734   -10.751    -0.017     40.07
   CaHSO4+         4.649e-14   4.472e-14   -13.333   -13.350    -0.017     (0)  
   FeSO4           4.189e-14   4.190e-14   -13.378   -13.378     0.000     22.13
   AlSO4+          8.614e-15   8.287e-15   -14.065   -14.082    -0.017     (0)  
   Al(SO4)2-       2.078e-18   1.999e-18   -17.682   -17.699    -0.017     (0)  
   FeSO4+          1.727e-18   1.662e-18   -17.763   -17.779    -0.017     (0)  
   FeHSO4+         7.127e-21   6.856e-21   -20.147   -20.164    -0.017     (0)  
   Fe(SO4)2-       2.889e-22   2.779e-22   -21.539   -21.556    -0.017     (0)  
   AlHSO4+2        2.104e-23   1.801e-23   -22.677   -22.744    -0.067     (0)  
   FeHSO4+2        1.309e-25   1.120e-25   -24.883   -24.951    -0.067     (0)  
Si            9.654e-07
   H4SiO4          9.601e-07   9.603e-07    -6.018    -6.018     0.000     52.33
   H3SiO4-         5.288e-09   5.087e-09    -8.277    -8.294    -0.017     27.90
   H2SiO4-2        1.325e-14   1.137e-14   -13.878   -13.944    -0.066     (0)  

------------------------------Saturation indices-------------------------------

  Phase               SI** log IAP   log K(295 K,   1 atm)

  Al(OH)3(a)       -0.64     10.35   10.99  Al(OH)3
  Albite           -8.45    -26.63  -18.19  NaAlSi3O8
  Alunite          -5.06     -6.10   -1.04  KAl3(SO4)2(OH)6
  Anhydrite        -4.54     -8.79   -4.25  CaSO4
  Anorthite        -5.96    -25.76  -19.80  CaAl2Si2O8
  Aragonite        -1.30     -9.62   -8.32  CaCO3
  Ca-Montmorillonite  -4.15    -49.60  -45.45  Ca0.165Al2.33Si3.67O10(OH)2
  Calcite          -1.16     -9.62   -8.46  CaCO3
  CH2O            -62.43    -62.43    0.00  CH2O
  Chalcedony       -2.43     -6.02   -3.59  SiO2
  Chlorite(14A)   -11.63     57.84   69.47  Mg5Al2Si3O10(OH)8
  Chrysotile      -11.48     21.09   32.56  Mg3Si2O5(OH)4
  CO2(g)           -2.98     -4.42   -1.43  CO2
  Dolomite         -2.70    -19.72  -17.02  CaMg(CO3)2
  Fe(OH)3(a)        1.23      6.12    4.89  Fe(OH)3
  Gibbsite          2.07     10.35    8.27  Al(OH)3
  Goethite          7.02      6.12   -0.90  FeOOH
  Gypsum           -4.21     -8.79   -4.58  CaSO4:2H2O
  H2(g)           -29.05    -32.14   -3.09  H2
  H2O(g)           -1.58     -0.00    1.58  H2O
  Hematite         16.03     12.24   -3.79  Fe2O3
  Illite           -4.58    -45.24  -40.66  K0.6Mg0.25Al2.3Si3.5O10(OH)2
  Jarosite-K       -9.79    -18.78   -8.98  KFe3(SO4)2(OH)6
  K-feldspar       -6.39    -27.19  -20.79  KAlSi3O8
  K-mica            3.34     16.47   13.13  KAl3Si3O10(OH)2
  Kaolinite         0.97      8.66    7.69  Al2Si2O5(OH)4
  Melanterite     -13.36    -15.60   -2.24  FeSO4:7H2O
  O2(g)           -26.17    -29.04   -2.87  O2
  Quartz           -1.99     -6.02   -4.02  SiO2
  Sepiolite       -11.81      4.03   15.84  Mg2Si3O7.5OH:3H2O
  Sepiolite(d)    -14.63      4.03   18.66  Mg2Si3O7.5OH:3H2O
  Siderite         -5.56    -16.43  -10.87  FeCO3
  SiO2(a)          -3.28     -6.02   -2.74  SiO2
  Talc            -12.68      9.05   21.73  Mg3Si4O10(OH)2

**For a gas, SI = log10(fugacity). Fugacity = pressure * phi / 1 atm.
  For ideal gases, phi = 1.

Initial solution 6.	 DS11 

-----------------------------Solution composition------------------------------

	Elements           Molality       Moles

	Al                3.165e-05   3.165e-05
	Alkalinity        5.441e-04   5.441e-04
	Ca                1.739e-04   1.739e-04
	Fe                4.638e-06   4.638e-06
	K                 3.726e-05   3.726e-05
	Mg                5.347e-05   5.347e-05
	N(5)              1.821e-05   1.821e-05
	Na                5.849e-04   5.849e-04
	S(6)              1.463e-05   1.463e-05
	Si                8.156e-07   8.156e-07

----------------------------Description of solution----------------------------

                                       pH  =   7.500    
                                       pe  =   7.100    
      Specific Conductance (µS/cm,  22°C)  = 71
                          Density (g/cm³)  =   0.99782
                               Volume (L)  =   1.00224
                        Activity of water  =   1.000
                 Ionic strength (mol/kgw)  =   1.024e-03
                       Mass of water (kg)  =   1.000e+00
                    Total carbon (mol/kg)  =   4.430e-04
                       Total CO2 (mol/kg)  =   4.430e-04
                         Temperature (°C)  =  22.00
                  Electrical balance (eq)  =   5.849e-04
 Percent error, 100*(Cat-|An|)/(Cat+|An|)  =  37.34
                               Iterations  =   8 (47 overall)
                                  Total H  = 1.110130e+02
                                  Total O  = 5.550777e+01

----------------------------Distribution of species----------------------------

                                               Log       Log       Log    mole V
   Species          Molality    Activity  Molality  Activity     Gamma   cm³/mol

   OH-             2.630e-07   2.537e-07    -6.580    -6.596    -0.016     -4.23
   H+              3.272e-08   3.162e-08    -7.485    -7.500    -0.015      0.00
   H2O             5.551e+01   1.000e+00     1.744    -0.000     0.000     18.06
Al            3.165e-05
   Al(OH)4-        3.099e-05   2.990e-05    -4.509    -4.524    -0.016     (0)  
   Al(OH)3         5.211e-07   5.212e-07    -6.283    -6.283     0.000     (0)  
   Al(OH)2+        1.452e-07   1.401e-07    -6.838    -6.853    -0.015     (0)  
   AlOH+2          8.503e-10   7.381e-10    -9.070    -9.132    -0.061    -27.65
   Al+3            3.889e-12   2.860e-12   -11.410   -11.544    -0.134    -42.08
   AlSO4+          1.106e-13   1.067e-13   -12.956   -12.972    -0.016     (0)  
   Al(SO4)2-       4.231e-17   4.082e-17   -16.374   -16.389    -0.016     (0)  
   AlHSO4+2        3.367e-22   2.917e-22   -21.473   -21.535    -0.062     (0)  
C(4)          4.430e-04
   HCO3-           4.117e-04   3.974e-04    -3.385    -3.401    -0.015     24.45
   CO2             2.939e-05   2.940e-05    -4.532    -4.532     0.000     34.29
   CaHCO3+         7.497e-07   7.238e-07    -6.125    -6.140    -0.015      9.55
   CO3-2           6.376e-07   5.534e-07    -6.195    -6.257    -0.061     -5.53
   MgHCO3+         2.196e-07   2.118e-07    -6.658    -6.674    -0.016      5.39
   CaCO3           1.316e-07   1.316e-07    -6.881    -6.881     0.000    -14.61
   NaHCO3          1.282e-07   1.283e-07    -6.892    -6.892     0.000      1.80
   MgCO3           2.326e-08   2.326e-08    -7.633    -7.633     0.000    -17.09
   NaCO3-          5.173e-09   4.990e-09    -8.286    -8.302    -0.016     -1.32
   FeHCO3+         2.504e-11   2.415e-11   -10.601   -10.617    -0.016     (0)  
   (CO2)2          1.434e-11   1.434e-11   -10.843   -10.843     0.000     68.57
   FeCO3           8.067e-12   8.069e-12   -11.093   -11.093     0.000     (0)  
Ca            1.739e-04
   Ca+2            1.727e-04   1.499e-04    -3.763    -3.824    -0.062    -18.17
   CaHCO3+         7.497e-07   7.238e-07    -6.125    -6.140    -0.015      9.55
   CaSO4           3.196e-07   3.197e-07    -6.495    -6.495     0.000      7.38
   CaCO3           1.316e-07   1.316e-07    -6.881    -6.881     0.000    -14.61
   CaOH+           8.153e-10   7.866e-10    -9.089    -9.104    -0.016     (0)  
   CaHSO4+         6.606e-14   6.373e-14   -13.180   -13.196    -0.016     (0)  
Fe(2)         7.390e-10
   Fe+2            6.996e-10   6.078e-10    -9.155    -9.216    -0.061    -22.33
   FeHCO3+         2.504e-11   2.415e-11   -10.601   -10.617    -0.016     (0)  
   FeCO3           8.067e-12   8.069e-12   -11.093   -11.093     0.000     (0)  
   FeOH+           5.021e-12   4.846e-12   -11.299   -11.315    -0.015     (0)  
   FeSO4           1.254e-12   1.255e-12   -11.902   -11.901     0.000     22.25
   Fe(OH)2         1.002e-15   1.002e-15   -14.999   -14.999     0.000     (0)  
   Fe(OH)3-        1.184e-18   1.143e-18   -17.927   -17.942    -0.015     (0)  
   FeHSO4+         2.679e-19   2.584e-19   -18.572   -18.588    -0.016     (0)  
Fe(3)         4.637e-06
   Fe(OH)3         3.522e-06   3.522e-06    -5.453    -5.453     0.000     (0)  
   Fe(OH)2+        1.022e-06   9.868e-07    -5.990    -6.006    -0.015     (0)  
   Fe(OH)4-        9.317e-08   8.994e-08    -7.031    -7.046    -0.015     (0)  
   FeOH+2          1.219e-10   1.057e-10    -9.914    -9.976    -0.062     (0)  
   Fe+3            8.417e-16   6.189e-16   -15.075   -15.208    -0.134     (0)  
   FeSO4+          8.069e-17   7.787e-17   -16.093   -16.109    -0.015     (0)  
   Fe2(OH)2+4      6.052e-19   3.409e-19   -18.218   -18.467    -0.249     (0)  
   Fe(SO4)2-       2.141e-20   2.066e-20   -19.669   -19.685    -0.016     (0)  
   Fe3(OH)4+5      2.279e-22   9.297e-23   -21.642   -22.032    -0.389     (0)  
   FeHSO4+2        7.630e-24   6.610e-24   -23.117   -23.180    -0.062     (0)  
H(0)          9.205e-33
   H2              4.603e-33   4.604e-33   -32.337   -32.337     0.000     28.61
K             3.726e-05
   K+              3.726e-05   3.594e-05    -4.429    -4.444    -0.016      8.91
   KSO4-           3.045e-09   2.939e-09    -8.516    -8.532    -0.015     34.02
Mg            5.347e-05
   Mg+2            5.310e-05   4.612e-05    -4.275    -4.336    -0.061    -21.71
   MgHCO3+         2.196e-07   2.118e-07    -6.658    -6.674    -0.016      5.39
   MgSO4           1.227e-07   1.227e-07    -6.911    -6.911     0.000      5.72
   MgCO3           2.326e-08   2.326e-08    -7.633    -7.633     0.000    -17.09
   MgOH+           4.171e-09   4.028e-09    -8.380    -8.395    -0.015     (0)  
N(5)          1.821e-05
   NO3-            1.821e-05   1.756e-05    -4.740    -4.756    -0.016     29.19
Na            5.849e-04
   Na+             5.847e-04   5.642e-04    -3.233    -3.249    -0.015     -1.64
   NaHCO3          1.282e-07   1.283e-07    -6.892    -6.892     0.000      1.80
   NaSO4-          3.527e-08   3.404e-08    -7.453    -7.468    -0.015     13.82
   NaCO3-          5.173e-09   4.990e-09    -8.286    -8.302    -0.016     -1.32
   NaOH            1.431e-20   1.432e-20   -19.844   -19.844     0.000     (0)  
O(0)          4.137e-29
   O2              2.068e-29   2.069e-29   -28.684   -28.684     0.000     30.16
S(6)          1.463e-05
   SO4-2           1.415e-05   1.227e-05    -4.849    -4.911    -0.062     14.11
   CaSO4           3.196e-07   3.197e-07    -6.495    -6.495     0.000      7.38
   MgSO4           1.227e-07   1.227e-07    -6.911    -6.911     0.000      5.72
   NaSO4-          3.527e-08   3.404e-08    -7.453    -7.468    -0.015     13.82
   KSO4-           3.045e-09   2.939e-09    -8.516    -8.532    -0.015     34.02
   HSO4-           3.666e-11   3.536e-11   -10.436   -10.451    -0.016     40.06
   FeSO4           1.254e-12   1.255e-12   -11.902   -11.901     0.000     22.25
   AlSO4+          1.106e-13   1.067e-13   -12.956   -12.972    -0.016     (0)  
   CaHSO4+         6.606e-14   6.373e-14   -13.180   -13.196    -0.016     (0)  
   FeSO4+          8.069e-17   7.787e-17   -16.093   -16.109    -0.015     (0)  
   Al(SO4)2-       4.231e-17   4.082e-17   -16.374   -16.389    -0.016     (0)  
   FeHSO4+         2.679e-19   2.584e-19   -18.572   -18.588    -0.016     (0)  
   Fe(SO4)2-       2.141e-20   2.066e-20   -19.669   -19.685    -0.016     (0)  
   AlHSO4+2        3.367e-22   2.917e-22   -21.473   -21.535    -0.062     (0)  
   FeHSO4+2        7.630e-24   6.610e-24   -23.117   -23.180    -0.062     (0)  
Si            8.156e-07
   H4SiO4          8.120e-07   8.122e-07    -6.090    -6.090     0.000     52.34
   H3SiO4-         3.529e-09   3.405e-09    -8.452    -8.468    -0.016     27.90
   H2SiO4-2        6.916e-15   6.003e-15   -14.160   -14.222    -0.061     (0)  

------------------------------Saturation indices-------------------------------

  Phase               SI** log IAP   log K(295 K,   1 atm)

  Al(OH)3(a)       -0.04     10.96   11.00  Al(OH)3
  Albite           -7.85    -26.04  -18.19  NaAlSi3O8
  Alunite          -2.87     -3.90   -1.03  KAl3(SO4)2(OH)6
  Anhydrite        -4.49     -8.74   -4.24  CaSO4
  Anorthite        -5.25    -25.05  -19.80  CaAl2Si2O8
  Aragonite        -1.76    -10.08   -8.32  CaCO3
  Ca-Montmorillonite  -3.06    -48.52  -45.46  Ca0.165Al2.33Si3.67O10(OH)2
  Calcite          -1.62    -10.08   -8.46  CaCO3
  CH2O            -62.93    -62.93    0.00  CH2O
  Chalcedony       -2.50     -6.09   -3.59  SiO2
  Chlorite(14A)   -12.55     56.96   69.51  Mg5Al2Si3O10(OH)8
  Chrysotile      -12.77     19.81   32.58  Mg3Si2O5(OH)4
  CO2(g)           -3.10     -4.53   -1.43  CO2
  Dolomite         -3.65    -20.67  -17.02  CaMg(CO3)2
  Fe(OH)3(a)        2.40      7.29    4.89  Fe(OH)3
  Gibbsite          2.68     10.96    8.28  Al(OH)3
  Goethite          8.18      7.29   -0.89  FeOOH
  Gypsum           -4.15     -8.74   -4.58  CaSO4:2H2O
  H2(g)           -29.24    -32.34   -3.09  H2
  H2O(g)           -1.58     -0.00    1.58  H2O
  Hematite         18.36     14.58   -3.78  Fe2O3
  Illite           -3.80    -44.47  -40.67  K0.6Mg0.25Al2.3Si3.5O10(OH)2
  Jarosite-K       -5.91    -14.89   -8.98  KFe3(SO4)2(OH)6
  K-feldspar       -6.44    -27.24  -20.80  KAlSi3O8
  K-mica            4.51     17.65   13.15  KAl3Si3O10(OH)2
  Kaolinite         2.03      9.73    7.70  Al2Si2O5(OH)4
  Melanterite     -11.88    -14.13   -2.25  FeSO4:7H2O
  O2(g)           -25.81    -28.68   -2.87  O2
  Quartz           -2.07     -6.09   -4.03  SiO2
  Sepiolite       -12.78      3.06   15.84  Mg2Si3O7.5OH:3H2O
  Sepiolite(d)    -15.60      3.06   18.66  Mg2Si3O7.5OH:3H2O
  Siderite         -4.60    -15.47  -10.87  FeCO3
  SiO2(a)          -3.35     -6.09   -2.74  SiO2
  Talc            -14.11      7.63   21.74  Mg3Si4O10(OH)2

**For a gas, SI = log10(fugacity). Fugacity = pressure * phi / 1 atm.
  For ideal gases, phi = 1.

Initial solution 7.	 DS12 

-----------------------------Solution composition------------------------------

	Elements           Molality       Moles

	Al                1.479e-05   1.479e-05
	Alkalinity        7.113e-04   7.113e-04
	Ca                2.423e-04   2.423e-04
	Fe                5.014e-07   5.014e-07
	K                 7.639e-05   7.639e-05
	Mg                8.021e-05   8.021e-05
	N(5)              1.971e-05   1.971e-05
	Na                3.759e-04   3.759e-04
	S(6)              1.241e-05   1.241e-05
	Si                9.487e-07   9.487e-07

----------------------------Description of solution----------------------------

                                       pH  =   7.500    
                                       pe  =   7.502    
      Specific Conductance (µS/cm,  22°C)  = 82
                          Density (g/cm³)  =   0.99785
                               Volume (L)  =   1.00223
                        Activity of water  =   1.000
                 Ionic strength (mol/kgw)  =   1.233e-03
                       Mass of water (kg)  =   1.000e+00
                    Total carbon (mol/kg)  =   6.966e-04
                       Total CO2 (mol/kg)  =   6.966e-04
                         Temperature (°C)  =  21.90
                  Electrical balance (eq)  =   3.864e-04
 Percent error, 100*(Cat-|An|)/(Cat+|An|)  =  21.46
                               Iterations  =   8 (55 overall)
                                  Total H  = 1.110131e+02
                                  Total O  = 5.550843e+01

----------------------------Distribution of species----------------------------

                                               Log       Log       Log    mole V
   Species          Molality    Activity  Molality  Activity     Gamma   cm³/mol

   OH-             2.619e-07   2.517e-07    -6.582    -6.599    -0.017     -4.23
   H+              3.282e-08   3.162e-08    -7.484    -7.500    -0.016      0.00
   H2O             5.551e+01   1.000e+00     1.744    -0.000     0.000     18.06
Al            1.479e-05
   Al(OH)4-        1.448e-05   1.392e-05    -4.839    -4.856    -0.017     (0)  
   Al(OH)3         2.429e-07   2.430e-07    -6.614    -6.614     0.000     (0)  
   Al(OH)2+        6.843e-08   6.583e-08    -7.165    -7.182    -0.017     (0)  
   AlOH+2          4.084e-10   3.499e-10    -9.389    -9.456    -0.067    -27.63
   Al+3            1.907e-12   1.365e-12   -11.720   -11.865    -0.145    -42.05
   AlSO4+          4.380e-14   4.212e-14   -13.359   -13.375    -0.017     (0)  
   Al(SO4)2-       1.388e-17   1.335e-17   -16.858   -16.875    -0.017     (0)  
   AlHSO4+2        1.346e-22   1.151e-22   -21.871   -21.939    -0.068     (0)  
C(4)          6.966e-04
   HCO3-           6.469e-04   6.224e-04    -3.189    -3.206    -0.017     24.45
   CO2             4.610e-05   4.611e-05    -4.336    -4.336     0.000     34.28
   CaHCO3+         1.613e-06   1.553e-06    -5.792    -5.809    -0.017      9.55
   CO3-2           1.009e-06   8.649e-07    -5.996    -6.063    -0.067     -5.53
   MgHCO3+         5.097e-07   4.901e-07    -6.293    -6.310    -0.017      5.39
   CaCO3           2.817e-07   2.818e-07    -6.550    -6.550     0.000    -14.61
   NaHCO3          1.287e-07   1.288e-07    -6.890    -6.890     0.000      1.80
   MgCO3           5.363e-08   5.365e-08    -7.271    -7.270     0.000    -17.09
   NaCO3-          5.169e-09   4.970e-09    -8.287    -8.304    -0.017     -1.33
   (CO2)2          3.515e-11   3.516e-11   -10.454   -10.454     0.000     68.56
   FeHCO3+         1.717e-12   1.651e-12   -11.765   -11.782    -0.017     (0)  
   FeCO3           5.501e-13   5.503e-13   -12.260   -12.259     0.000     (0)  
Ca            2.423e-04
   Ca+2            2.400e-04   2.056e-04    -3.620    -3.687    -0.067    -18.17
   CaHCO3+         1.613e-06   1.553e-06    -5.792    -5.809    -0.017      9.55
   CaSO4           3.630e-07   3.631e-07    -6.440    -6.440     0.000      7.38
   CaCO3           2.817e-07   2.818e-07    -6.550    -6.550     0.000    -14.61
   CaOH+           1.122e-09   1.079e-09    -8.950    -8.967    -0.017     (0)  
   CaHSO4+         7.517e-14   7.228e-14   -13.124   -13.141    -0.017     (0)  
Fe(2)         3.345e-11
   Fe+2            3.092e-11   2.652e-11   -10.510   -10.576    -0.067    -22.32
   FeHCO3+         1.717e-12   1.651e-12   -11.765   -11.782    -0.017     (0)  
   FeCO3           5.501e-13   5.503e-13   -12.260   -12.259     0.000     (0)  
   FeOH+           2.182e-13   2.099e-13   -12.661   -12.678    -0.017     (0)  
   FeSO4           4.526e-14   4.527e-14   -13.344   -13.344     0.000     22.36
   Fe(OH)2         4.300e-17   4.301e-17   -16.367   -16.366     0.000     (0)  
   Fe(OH)3-        5.094e-20   4.900e-20   -19.293   -19.310    -0.017     (0)  
   FeHSO4+         9.694e-21   9.321e-21   -20.013   -20.031    -0.017     (0)  
Fe(3)         5.014e-07
   Fe(OH)3         3.801e-07   3.802e-07    -6.420    -6.420     0.000     (0)  
   Fe(OH)2+        1.112e-07   1.070e-07    -6.954    -6.971    -0.017     (0)  
   Fe(OH)4-        1.005e-08   9.668e-09    -7.998    -8.015    -0.017     (0)  
   FeOH+2          1.344e-11   1.151e-11   -10.872   -10.939    -0.067     (0)  
   Fe+3            9.469e-17   6.777e-17   -16.024   -16.169    -0.145     (0)  
   FeSO4+          7.326e-18   7.048e-18   -17.135   -17.152    -0.017     (0)  
   Fe2(OH)2+4      7.594e-21   4.056e-21   -20.120   -20.392    -0.272     (0)  
   Fe(SO4)2-       1.610e-21   1.548e-21   -20.793   -20.810    -0.017     (0)  
   FeHSO4+2        6.999e-25   5.983e-25   -24.155   -24.223    -0.068     (0)  
   Fe3(OH)4+5      3.225e-25   1.211e-25   -24.491   -24.917    -0.426     (0)  
H(0)          1.447e-33
   H2              7.235e-34   7.237e-34   -33.141   -33.140     0.000     28.61
K             7.639e-05
   K+              7.639e-05   7.344e-05    -4.117    -4.134    -0.017      8.91
   KSO4-           5.162e-09   4.966e-09    -8.287    -8.304    -0.017     34.02
Mg            8.021e-05
   Mg+2            7.949e-05   6.817e-05    -4.100    -4.166    -0.067    -21.70
   MgHCO3+         5.097e-07   4.901e-07    -6.293    -6.310    -0.017      5.39
   MgSO4           1.498e-07   1.498e-07    -6.824    -6.824     0.000      5.71
   MgCO3           5.363e-08   5.365e-08    -7.271    -7.270     0.000    -17.09
   MgOH+           6.127e-09   5.898e-09    -8.213    -8.229    -0.017     (0)  
N(5)          1.971e-05
   NO3-            1.971e-05   1.894e-05    -4.705    -4.723    -0.017     29.18
Na            3.759e-04
   Na+             3.758e-04   3.614e-04    -3.425    -3.442    -0.017     -1.64
   NaHCO3          1.287e-07   1.288e-07    -6.890    -6.890     0.000      1.80
   NaSO4-          1.876e-08   1.805e-08    -7.727    -7.743    -0.017     13.85
   NaCO3-          5.169e-09   4.970e-09    -8.287    -8.304    -0.017     -1.33
   NaOH            9.096e-21   9.098e-21   -20.041   -20.041     0.000     (0)  
O(0)          1.552e-27
   O2              7.759e-28   7.761e-28   -27.110   -27.110     0.000     30.15
S(6)          1.241e-05
   SO4-2           1.187e-05   1.017e-05    -4.925    -4.993    -0.067     14.10
   CaSO4           3.630e-07   3.631e-07    -6.440    -6.440     0.000      7.38
   MgSO4           1.498e-07   1.498e-07    -6.824    -6.824     0.000      5.71
   NaSO4-          1.876e-08   1.805e-08    -7.727    -7.743    -0.017     13.85
   KSO4-           5.162e-09   4.966e-09    -8.287    -8.304    -0.017     34.02
   HSO4-           3.040e-11   2.923e-11   -10.517   -10.534    -0.017     40.06
   CaHSO4+         7.517e-14   7.228e-14   -13.124   -13.141    -0.017     (0)  
   FeSO4           4.526e-14   4.527e-14   -13.344   -13.344     0.000     22.36
   AlSO4+          4.380e-14   4.212e-14   -13.359   -13.375    -0.017     (0)  
   Al(SO4)2-       1.388e-17   1.335e-17   -16.858   -16.875    -0.017     (0)  
   FeSO4+          7.326e-18   7.048e-18   -17.135   -17.152    -0.017     (0)  
   FeHSO4+         9.694e-21   9.321e-21   -20.013   -20.031    -0.017     (0)  
   Fe(SO4)2-       1.610e-21   1.548e-21   -20.793   -20.810    -0.017     (0)  
   AlHSO4+2        1.346e-22   1.151e-22   -21.871   -21.939    -0.068     (0)  
   FeHSO4+2        6.999e-25   5.983e-25   -24.155   -24.223    -0.068     (0)  
Si            9.487e-07
   H4SiO4          9.446e-07   9.449e-07    -6.025    -6.025     0.000     52.35
   H3SiO4-         4.105e-09   3.947e-09    -8.387    -8.404    -0.017     27.90
   H2SiO4-2        8.066e-15   6.912e-15   -14.093   -14.160    -0.067     (0)  

------------------------------Saturation indices-------------------------------

  Phase               SI** log IAP   log K(295 K,   1 atm)

  Al(OH)3(a)       -0.37     10.64   11.00  Al(OH)3
  Albite           -8.17    -26.37  -18.20  NaAlSi3O8
  Alunite          -3.70     -4.71   -1.01  KAl3(SO4)2(OH)6
  Anhydrite        -4.44     -8.68   -4.24  CaSO4
  Anorthite        -5.65    -25.45  -19.80  CaAl2Si2O8
  Aragonite        -1.43     -9.75   -8.32  CaCO3
  Ca-Montmorillonite  -3.56    -49.03  -45.48  Ca0.165Al2.33Si3.67O10(OH)2
  Calcite          -1.29     -9.75   -8.46  CaCO3
  CH2O            -64.34    -64.34    0.00  CH2O
  Chalcedony       -2.44     -6.02   -3.59  SiO2
  Chlorite(14A)   -12.18     57.36   69.55  Mg5Al2Si3O10(OH)8
  Chrysotile      -12.14     20.45   32.59  Mg3Si2O5(OH)4
  CO2(g)           -2.91     -4.34   -1.43  CO2
  Dolomite         -2.96    -19.98  -17.02  CaMg(CO3)2
  Fe(OH)3(a)        1.44      6.33    4.89  Fe(OH)3
  Gibbsite          2.35     10.64    8.29  Al(OH)3
  Goethite          7.22      6.33   -0.89  FeOOH
  Gypsum           -4.10     -8.68   -4.58  CaSO4:2H2O
  H2(g)           -30.05    -33.14   -3.09  H2
  H2O(g)           -1.58     -0.00    1.58  H2O
  Hematite         16.43     12.66   -3.77  Fe2O3
  Illite           -4.09    -44.78  -40.69  K0.6Mg0.25Al2.3Si3.5O10(OH)2
  Jarosite-K       -8.66    -17.63   -8.97  KFe3(SO4)2(OH)6
  K-feldspar       -6.25    -27.06  -20.81  KAlSi3O8
  K-mica            4.04     17.20   13.16  KAl3Si3O10(OH)2
  Kaolinite         1.51      9.22    7.71  Al2Si2O5(OH)4
  Melanterite     -13.32    -15.57   -2.25  FeSO4:7H2O
  O2(g)           -24.24    -27.11   -2.87  O2
  Quartz           -2.00     -6.02   -4.03  SiO2
  Sepiolite       -12.25      3.59   15.84  Mg2Si3O7.5OH:3H2O
  Sepiolite(d)    -15.07      3.59   18.66  Mg2Si3O7.5OH:3H2O
  Siderite         -5.77    -16.64  -10.87  FeCO3
  SiO2(a)          -3.29     -6.02   -2.74  SiO2
  Talc            -13.35      8.40   21.76  Mg3Si4O10(OH)2

**For a gas, SI = log10(fugacity). Fugacity = pressure * phi / 1 atm.
  For ideal gases, phi = 1.

Initial solution 8.	 DS13 

-----------------------------Solution composition------------------------------

	Elements           Molality       Moles

	Al                6.672e-07   6.672e-07
	Alkalinity        7.670e-04   7.670e-04
	Ca                2.445e-04   2.445e-04
	Fe                2.865e-07   2.865e-07
	K                 6.798e-05   6.798e-05
	Mg                7.890e-05   7.890e-05
	N(5)              1.942e-05   1.942e-05
	Na                2.489e-04   2.489e-04
	S(6)              1.175e-05   1.175e-05
	Si                8.489e-07   8.489e-07

----------------------------Description of solution----------------------------

                                       pH  =   7.500    
                                       pe  =   8.068    
      Specific Conductance (µS/cm,  22°C)  = 81
                          Density (g/cm³)  =   0.99783
                               Volume (L)  =   1.00225
                        Activity of water  =   1.000
                 Ionic strength (mol/kgw)  =   1.214e-03
                       Mass of water (kg)  =   1.000e+00
                    Total carbon (mol/kg)  =   8.163e-04
                       Total CO2 (mol/kg)  =   8.163e-04
                         Temperature (°C)  =  22.00
                  Electrical balance (eq)  =   1.559e-04
 Percent error, 100*(Cat-|An|)/(Cat+|An|)  =   8.85
                               Iterations  =   8 (63 overall)
                                  Total H  = 1.110132e+02
                                  Total O  = 5.550872e+01

----------------------------Distribution of species----------------------------

                                               Log       Log       Log    mole V
   Species          Molality    Activity  Molality  Activity     Gamma   cm³/mol

   OH-             2.639e-07   2.537e-07    -6.579    -6.596    -0.017     -4.23
   H+              3.281e-08   3.162e-08    -7.484    -7.500    -0.016      0.00
   H2O             5.551e+01   1.000e+00     1.744    -0.000     0.000     18.06
Al            6.672e-07
   Al(OH)4-        6.531e-07   6.283e-07    -6.185    -6.202    -0.017     (0)  
   Al(OH)3         1.095e-08   1.095e-08    -7.961    -7.960     0.000     (0)  
   Al(OH)2+        3.060e-09   2.945e-09    -8.514    -8.531    -0.017     (0)  
   AlOH+2          1.808e-11   1.551e-11   -10.743   -10.809    -0.067    -27.64
   Al+3            8.378e-14   6.010e-14   -13.077   -13.221    -0.144    -42.06
   AlSO4+          1.831e-15   1.762e-15   -14.737   -14.754    -0.017     (0)  
   Al(SO4)2-       5.506e-19   5.297e-19   -18.259   -18.276    -0.017     (0)  
   AlHSO4+2        5.628e-24   4.817e-24   -23.250   -23.317    -0.068     (0)  
C(4)          8.163e-04
   HCO3-           7.582e-04   7.296e-04    -3.120    -3.137    -0.017     24.45
   CO2             5.396e-05   5.398e-05    -4.268    -4.268     0.000     34.29
   CaHCO3+         1.911e-06   1.839e-06    -5.719    -5.735    -0.017      9.56
   CO3-2           1.185e-06   1.016e-06    -5.926    -5.993    -0.067     -5.52
   MgHCO3+         5.878e-07   5.653e-07    -6.231    -6.248    -0.017      5.39
   CaCO3           3.344e-07   3.345e-07    -6.476    -6.476     0.000    -14.61
   NaHCO3          9.988e-08   9.991e-08    -7.001    -7.000     0.000      1.80
   MgCO3           6.206e-08   6.208e-08    -7.207    -7.207     0.000    -17.09
   NaCO3-          4.041e-09   3.887e-09    -8.393    -8.410    -0.017     -1.32
   (CO2)2          4.834e-11   4.835e-11   -10.316   -10.316     0.000     68.57
   FeHCO3+         3.064e-13   2.948e-13   -12.514   -12.531    -0.017     (0)  
   FeCO3           9.844e-14   9.847e-14   -13.007   -13.007     0.000     (0)  
Ca            2.445e-04
   Ca+2            2.419e-04   2.074e-04    -3.616    -3.683    -0.067    -18.16
   CaHCO3+         1.911e-06   1.839e-06    -5.719    -5.735    -0.017      9.56
   CaSO4           3.476e-07   3.477e-07    -6.459    -6.459     0.000      7.38
   CaCO3           3.344e-07   3.345e-07    -6.476    -6.476     0.000    -14.61
   CaOH+           1.132e-09   1.089e-09    -8.946    -8.963    -0.017     (0)  
   CaHSO4+         7.206e-14   6.931e-14   -13.142   -13.159    -0.017     (0)  
Fe(2)         5.150e-12
   Fe+2            4.705e-12   4.040e-12   -11.327   -11.394    -0.066    -22.32
   FeHCO3+         3.064e-13   2.948e-13   -12.514   -12.531    -0.017     (0)  
   FeCO3           9.844e-14   9.847e-14   -13.007   -13.007     0.000     (0)  
   FeOH+           3.347e-14   3.221e-14   -13.475   -13.492    -0.017     (0)  
   FeSO4           6.552e-15   6.553e-15   -14.184   -14.184     0.000     22.25
   Fe(OH)2         6.659e-18   6.661e-18   -17.177   -17.176     0.000     (0)  
   Fe(OH)3-        7.894e-21   7.596e-21   -20.103   -20.119    -0.017     (0)  
   FeHSO4+         1.403e-21   1.350e-21   -20.853   -20.870    -0.017     (0)  
Fe(3)         2.865e-07
   Fe(OH)3         2.174e-07   2.175e-07    -6.663    -6.663     0.000     (0)  
   Fe(OH)2+        6.331e-08   6.093e-08    -7.199    -7.215    -0.017     (0)  
   Fe(OH)4-        5.770e-09   5.553e-09    -8.239    -8.255    -0.017     (0)  
   FeOH+2          7.614e-12   6.527e-12   -11.118   -11.185    -0.067     (0)  
   Fe+3            5.327e-17   3.821e-17   -16.274   -16.418    -0.144     (0)  
   FeSO4+          3.927e-18   3.778e-18   -17.406   -17.423    -0.017     (0)  
   Fe2(OH)2+4      2.422e-21   1.300e-21   -20.616   -20.886    -0.270     (0)  
   Fe(SO4)2-       8.189e-22   7.876e-22   -21.087   -21.104    -0.017     (0)  
   FeHSO4+2        3.747e-25   3.207e-25   -24.426   -24.494    -0.068     (0)  
   Fe3(OH)4+5      5.789e-26   2.188e-26   -25.237   -25.660    -0.422     (0)  
H(0)          1.067e-34
   H2              5.333e-35   5.335e-35   -34.273   -34.273     0.000     28.61
K             6.798e-05
   K+              6.798e-05   6.537e-05    -4.168    -4.185    -0.017      8.91
   KSO4-           4.365e-09   4.201e-09    -8.360    -8.377    -0.017     34.03
Mg            7.890e-05
   Mg+2            7.810e-05   6.704e-05    -4.107    -4.174    -0.066    -21.70
   MgHCO3+         5.878e-07   5.653e-07    -6.231    -6.248    -0.017      5.39
   MgSO4           1.401e-07   1.402e-07    -6.853    -6.853     0.000      5.72
   MgCO3           6.206e-08   6.208e-08    -7.207    -7.207     0.000    -17.09
   MgOH+           6.081e-09   5.855e-09    -8.216    -8.232    -0.016     (0)  
N(5)          1.942e-05
   NO3-            1.942e-05   1.867e-05    -4.712    -4.729    -0.017     29.19
Na            2.489e-04
   Na+             2.488e-04   2.394e-04    -3.604    -3.621    -0.017     -1.64
   NaHCO3          9.988e-08   9.991e-08    -7.001    -7.000     0.000      1.80
   NaSO4-          1.179e-08   1.135e-08    -7.928    -7.945    -0.017     13.85
   NaCO3-          4.041e-09   3.887e-09    -8.393    -8.410    -0.017     -1.32
   NaOH            6.071e-21   6.073e-21   -20.217   -20.217     0.000     (0)  
O(0)          3.081e-25
   O2              1.540e-25   1.541e-25   -24.812   -24.812     0.000     30.16
S(6)          1.175e-05
   SO4-2           1.125e-05   9.642e-06    -4.949    -5.016    -0.067     14.12
   CaSO4           3.476e-07   3.477e-07    -6.459    -6.459     0.000      7.38
   MgSO4           1.401e-07   1.402e-07    -6.853    -6.853     0.000      5.72
   NaSO4-          1.179e-08   1.135e-08    -7.928    -7.945    -0.017     13.85
   KSO4-           4.365e-09   4.201e-09    -8.360    -8.377    -0.017     34.03
   HSO4-           2.889e-11   2.779e-11   -10.539   -10.556    -0.017     40.07
   CaHSO4+         7.206e-14   6.931e-14   -13.142   -13.159    -0.017     (0)  
   FeSO4           6.552e-15   6.553e-15   -14.184   -14.184     0.000     22.25
   AlSO4+          1.831e-15   1.762e-15   -14.737   -14.754    -0.017     (0)  
   FeSO4+          3.927e-18   3.778e-18   -17.406   -17.423    -0.017     (0)  
   Al(SO4)2-       5.506e-19   5.297e-19   -18.259   -18.276    -0.017     (0)  
   FeHSO4+         1.403e-21   1.350e-21   -20.853   -20.870    -0.017     (0)  
   Fe(SO4)2-       8.189e-22   7.876e-22   -21.087   -21.104    -0.017     (0)  
   AlHSO4+2        5.628e-24   4.817e-24   -23.250   -23.317    -0.068     (0)  
   FeHSO4+2        3.747e-25   3.207e-25   -24.426   -24.494    -0.068     (0)  
Si            8.489e-07
   H4SiO4          8.452e-07   8.454e-07    -6.073    -6.073     0.000     52.34
   H3SiO4-         3.685e-09   3.544e-09    -8.434    -8.450    -0.017     27.90
   H2SiO4-2        7.284e-15   6.249e-15   -14.138   -14.204    -0.067     (0)  

------------------------------Saturation indices-------------------------------

  Phase               SI** log IAP   log K(295 K,   1 atm)

  Al(OH)3(a)       -1.72      9.28   11.00  Al(OH)3
  Albite           -9.85    -28.04  -18.19  NaAlSi3O8
  Alunite          -7.85     -8.88   -1.03  KAl3(SO4)2(OH)6
  Anhydrite        -4.45     -8.70   -4.24  CaSO4
  Anorthite        -8.43    -28.23  -19.80  CaAl2Si2O8
  Aragonite        -1.36     -9.68   -8.32  CaCO3
  Ca-Montmorillonite  -6.88    -52.35  -45.46  Ca0.165Al2.33Si3.67O10(OH)2
  Calcite          -1.21     -9.68   -8.46  CaCO3
  CH2O            -66.54    -66.54    0.00  CH2O
  Chalcedony       -2.49     -6.07   -3.59  SiO2
  Chlorite(14A)   -15.04     54.47   69.51  Mg5Al2Si3O10(OH)8
  Chrysotile      -12.24     20.33   32.58  Mg3Si2O5(OH)4
  CO2(g)           -2.84     -4.27   -1.43  CO2
  Dolomite         -2.82    -19.84  -17.02  CaMg(CO3)2
  Fe(OH)3(a)        1.19      6.08    4.89  Fe(OH)3
  Gibbsite          1.00      9.28    8.28  Al(OH)3
  Goethite          6.97      6.08   -0.89  FeOOH
  Gypsum           -4.12     -8.70   -4.58  CaSO4:2H2O
  H2(g)           -31.18    -34.27   -3.09  H2
  H2O(g)           -1.58     -0.00    1.58  H2O
  Hematite         15.94     12.16   -3.78  Fe2O3
  Illite           -7.40    -48.07  -40.67  K0.6Mg0.25Al2.3Si3.5O10(OH)2
  Jarosite-K       -9.49    -18.47   -8.98  KFe3(SO4)2(OH)6
  K-feldspar       -7.80    -28.61  -20.80  KAlSi3O8
  K-mica           -0.21     12.93   13.15  KAl3Si3O10(OH)2
  Kaolinite        -1.29      6.41    7.70  Al2Si2O5(OH)4
  Melanterite     -14.16    -16.41   -2.25  FeSO4:7H2O
  O2(g)           -21.94    -24.81   -2.87  O2
  Quartz           -2.05     -6.07   -4.03  SiO2
[...]
Mg            1.851e-06
   Mg+2            1.849e-06   1.770e-06    -5.733    -5.752    -0.019    -21.85
   MgSO4           1.646e-09   1.646e-09    -8.784    -8.783     0.000      5.79
   MgOH+           6.187e-13   6.120e-13   -12.208   -12.213    -0.005     (0)  
N(5)          1.171e-05
   NO3-            1.171e-05   1.158e-05    -4.931    -4.936    -0.005     29.34
Na            1.096e-04
   Na+             1.096e-04   1.084e-04    -3.960    -3.965    -0.005     -1.58
   NaSO4-          2.235e-09   2.210e-09    -8.651    -8.656    -0.005     13.60
   NaOH            1.064e-23   1.064e-23   -22.973   -22.973     0.000     (0)  
O(0)          9.735e-25
   O2              4.868e-25   4.868e-25   -24.313   -24.313     0.000     30.30
S(6)          4.299e-06
   SO4-2           4.288e-06   4.103e-06    -5.368    -5.387    -0.019     14.26
   CaSO4           3.879e-09   3.879e-09    -8.411    -8.411     0.000      7.45
   HSO4-           3.660e-09   3.620e-09    -8.437    -8.441    -0.005     40.17
   NaSO4-          2.235e-09   2.210e-09    -8.651    -8.656    -0.005     13.60
   MgSO4           1.646e-09   1.646e-09    -8.784    -8.783     0.000      5.79
   KSO4-           1.023e-10   1.012e-10    -9.990    -9.995    -0.005     34.05
   CaHSO4+         2.362e-13   2.336e-13   -12.627   -12.631    -0.005     (0)  

------------------------------Saturation indices-------------------------------

  Phase               SI** log IAP   log K(296 K,   1 atm)

  Anhydrite        -6.39    -10.66   -4.26  CaSO4
  Gypsum           -6.07    -10.66   -4.58  CaSO4:2H2O
  H2(g)           -31.15    -34.24   -3.10  H2
  H2O(g)           -1.54     -0.00    1.54  H2O
  O2(g)           -21.43    -24.31   -2.88  O2

**For a gas, SI = log10(fugacity). Fugacity = pressure * phi / 1 atm.
  For ideal gases, phi = 1.

Initial solution 52.	 SPBOX 

-----------------------------Solution composition------------------------------

	Elements           Molality       Moles

	Alkalinity        5.884e-04   5.884e-04
	Ca                1.501e-04   1.501e-04
	K                 6.243e-05   6.243e-05
	Mg                4.364e-05   4.364e-05
	N(5)              4.148e-05   4.148e-05
	Na                2.570e-04   2.570e-04
	S(6)              6.975e-06   6.975e-06
	Si                2.996e-07   2.996e-07

----------------------------Description of solution----------------------------

                                       pH  =   7.350    
                                       pe  =   4.200    
      Specific Conductance (µS/cm,  22°C)  = 63
                          Density (g/cm³)  =   0.99774
                               Volume (L)  =   1.00232
                        Activity of water  =   1.000
                 Ionic strength (mol/kgw)  =   8.731e-04
                       Mass of water (kg)  =   1.000e+00
                    Total carbon (mol/kg)  =   6.464e-04
                       Total CO2 (mol/kg)  =   6.464e-04
                         Temperature (°C)  =  22.30
                  Electrical balance (eq)  =   6.302e-05
 Percent error, 100*(Cat-|An|)/(Cat+|An|)  =   4.68
                               Iterations  =   8 (384 overall)
                                  Total H  = 1.110130e+02
                                  Total O  = 5.550825e+01

----------------------------Distribution of species----------------------------

                                               Log       Log       Log    mole V
   Species          Molality    Activity  Molality  Activity     Gamma   cm³/mol

   OH-             1.902e-07   1.839e-07    -6.721    -6.735    -0.015     -4.22
   H+              4.611e-08   4.467e-08    -7.336    -7.350    -0.014      0.00
   H2O             5.551e+01   1.000e+00     1.744    -0.000     0.000     18.06
C(4)          6.464e-04
   HCO3-           5.854e-04   5.665e-04    -3.233    -3.247    -0.014     24.47
   CO2             5.893e-05   5.895e-05    -4.230    -4.230     0.000     34.30
   CaHCO3+         9.333e-07   9.033e-07    -6.030    -6.044    -0.014      9.56
   CO3-2           6.410e-07   5.622e-07    -6.193    -6.250    -0.057     -5.51
   MgHCO3+         2.575e-07   2.491e-07    -6.589    -6.604    -0.014      5.40
   CaCO3           1.171e-07   1.171e-07    -6.932    -6.931     0.000    -14.61
   NaHCO3          8.038e-08   8.040e-08    -7.095    -7.095     0.000      1.80
   MgCO3           1.956e-08   1.956e-08    -7.709    -7.709     0.000    -17.09
   NaCO3-          2.344e-09   2.267e-09    -8.630    -8.644    -0.014     -1.29
   (CO2)2          5.825e-11   5.826e-11   -10.235   -10.235     0.000     68.60
Ca            1.501e-04
   Ca+2            1.489e-04   1.306e-04    -3.827    -3.884    -0.057    -18.18
   CaHCO3+         9.333e-07   9.033e-07    -6.030    -6.044    -0.014      9.56
   CaSO4           1.352e-07   1.352e-07    -6.869    -6.869     0.000      7.40
   CaCO3           1.171e-07   1.171e-07    -6.932    -6.931     0.000    -14.61
   CaOH+           5.014e-10   4.850e-10    -9.300    -9.314    -0.014     (0)  
   CaHSO4+         3.951e-14   3.822e-14   -13.403   -13.418    -0.014     (0)  
H(0)          1.155e-26
   H2              5.777e-27   5.778e-27   -26.238   -26.238     0.000     28.61
K             6.243e-05
   K+              6.243e-05   6.038e-05    -4.205    -4.219    -0.014      8.92
   KSO4-           2.484e-09   2.404e-09    -8.605    -8.619    -0.014     34.03
Mg            4.364e-05
   Mg+2            4.331e-05   3.800e-05    -4.363    -4.420    -0.057    -21.73
   MgHCO3+         2.575e-07   2.491e-07    -6.589    -6.604    -0.014      5.40
   MgSO4           4.935e-08   4.936e-08    -7.307    -7.307     0.000      5.73
   MgCO3           1.956e-08   1.956e-08    -7.709    -7.709     0.000    -17.09
   MgOH+           2.495e-09   2.415e-09    -8.603    -8.617    -0.014     (0)  
N(5)          4.148e-05
   NO3-            4.148e-05   4.011e-05    -4.382    -4.397    -0.015     29.22
Na            2.570e-04
   Na+             2.569e-04   2.485e-04    -3.590    -3.605    -0.014     -1.63
   NaHCO3          8.038e-08   8.040e-08    -7.095    -7.095     0.000      1.80
   NaSO4-          7.518e-09   7.275e-09    -8.124    -8.138    -0.014     13.80
   NaCO3-          2.344e-09   2.267e-09    -8.630    -8.644    -0.014     -1.29
   NaOH            4.569e-21   4.570e-21   -20.340   -20.340     0.000     (0)  
O(0)          0.000e+00
   O2              0.000e+00   0.000e+00   -40.783   -40.783     0.000     30.18
S(6)          6.975e-06
   SO4-2           6.780e-06   5.943e-06    -5.169    -5.226    -0.057     14.14
   CaSO4           1.352e-07   1.352e-07    -6.869    -6.869     0.000      7.40
   MgSO4           4.935e-08   4.936e-08    -7.307    -7.307     0.000      5.73
   NaSO4-          7.518e-09   7.275e-09    -8.124    -8.138    -0.014     13.80
   KSO4-           2.484e-09   2.404e-09    -8.605    -8.619    -0.014     34.03
   HSO4-           2.517e-11   2.435e-11   -10.599   -10.614    -0.014     40.09
   CaHSO4+         3.951e-14   3.822e-14   -13.403   -13.418    -0.014     (0)  
Si            2.996e-07
   H4SiO4          2.987e-07   2.987e-07    -6.525    -6.525     0.000     52.31
   H3SiO4-         9.265e-10   8.962e-10    -9.033    -9.048    -0.014     27.90
   H2SiO4-2        1.302e-15   1.142e-15   -14.886   -14.943    -0.057     (0)  

------------------------------Saturation indices-------------------------------

  Phase               SI** log IAP   log K(295 K,   1 atm)

  Anhydrite        -4.86     -9.11   -4.25  CaSO4
  Aragonite        -1.81    -10.13   -8.32  CaCO3
  Calcite          -1.67    -10.13   -8.47  CaCO3
  CH2O            -50.43    -50.43    0.00  CH2O
  Chalcedony       -2.94     -6.52   -3.58  SiO2
  Chrysotile      -14.75     17.79   32.54  Mg3Si2O5(OH)4
  CO2(g)           -2.79     -4.23   -1.44  CO2
  Dolomite         -3.78    -20.80  -17.03  CaMg(CO3)2
  Gypsum           -4.53     -9.11   -4.58  CaSO4:2H2O
  H2(g)           -23.14    -26.24   -3.09  H2
  H2O(g)           -1.57     -0.00    1.57  H2O
  O2(g)           -37.91    -40.78   -2.87  O2
  Quartz           -2.50     -6.52   -4.02  SiO2
  Sepiolite       -14.85      0.99   15.83  Mg2Si3O7.5OH:3H2O
  Sepiolite(d)    -17.67      0.99   18.66  Mg2Si3O7.5OH:3H2O
  SiO2(a)          -3.79     -6.52   -2.73  SiO2
  Talc            -16.97      4.74   21.71  Mg3Si4O10(OH)2

**For a gas, SI = log10(fugacity). Fugacity = pressure * phi / 1 atm.
  For ideal gases, phi = 1.

Initial solution 53.	 USUP 

-----------------------------Solution composition------------------------------

	Elements           Molality       Moles

	Al                6.153e-06   6.153e-06
	Alkalinity        6.785e-04   6.785e-04
	Ca                2.115e-04   2.115e-04
	Fe                1.074e-06   1.074e-06
	K                 4.665e-05   4.665e-05
	Mg                6.228e-05   6.228e-05
	N(5)              2.613e-05   2.613e-05
	Na                4.370e-04   4.370e-04
	S(6)              8.162e-06   8.162e-06
	Si                4.161e-07   4.161e-07

----------------------------Description of solution----------------------------

                                       pH  =   7.300    
                                       pe  =   4.200    
      Specific Conductance (µS/cm,  23°C)  = 80
                          Density (g/cm³)  =   0.99768
                               Volume (L)  =   1.00239
                        Activity of water  =   1.000
                 Ionic strength (mol/kgw)  =   1.144e-03
                       Mass of water (kg)  =   1.000e+00
                    Total carbon (mol/kg)  =   7.255e-04
                       Total CO2 (mol/kg)  =   7.255e-04
                         Temperature (°C)  =  22.60
                  Electrical balance (eq)  =   3.300e-04
 Percent error, 100*(Cat-|An|)/(Cat+|An|)  =  19.09
                               Iterations  =   6 (390 overall)
                                  Total H  = 1.110131e+02
                                  Total O  = 5.550846e+01

----------------------------Distribution of species----------------------------

                                               Log       Log       Log    mole V
   Species          Molality    Activity  Molality  Activity     Gamma   cm³/mol

   OH-             1.743e-07   1.678e-07    -6.759    -6.775    -0.017     -4.20
   H+              5.195e-08   5.012e-08    -7.284    -7.300    -0.016      0.00
   H2O             5.551e+01   1.000e+00     1.744    -0.000     0.000     18.06
Al            6.153e-06
   Al(OH)4-        5.929e-06   5.710e-06    -5.227    -5.243    -0.016     (0)  
   Al(OH)3         1.566e-07   1.566e-07    -6.805    -6.805     0.000     (0)  
   Al(OH)2+        6.617e-08   6.375e-08    -7.179    -7.196    -0.016     (0)  
   AlOH+2          5.854e-10   5.042e-10    -9.233    -9.297    -0.065    -27.66
   Al+3            4.114e-12   2.976e-12   -11.386   -11.526    -0.141    -42.11
   AlSO4+          6.401e-14   6.164e-14   -13.194   -13.210    -0.016     (0)  
   Al(SO4)2-       1.353e-17   1.303e-17   -16.869   -16.885    -0.016     (0)  
   AlHSO4+2        3.123e-22   2.684e-22   -21.505   -21.571    -0.066     (0)  
C(4)          7.255e-04
   HCO3-           6.499e-04   6.260e-04    -3.187    -3.203    -0.016     24.50
   CO2             7.277e-05   7.279e-05    -4.138    -4.138     0.000     34.32
   CaHCO3+         1.440e-06   1.388e-06    -5.842    -5.858    -0.016      9.58
   CO3-2           6.470e-07   5.573e-07    -6.189    -6.254    -0.065     -5.46
   MgHCO3+         4.010e-07   3.861e-07    -6.397    -6.413    -0.016      5.41
   CaCO3           1.614e-07   1.614e-07    -6.792    -6.792     0.000    -14.61
   NaHCO3          1.501e-07   1.502e-07    -6.824    -6.823     0.000      1.80
   MgCO3           2.728e-08   2.729e-08    -7.564    -7.564     0.000    -17.09
   FeHCO3+         1.636e-08   1.575e-08    -7.786    -7.803    -0.016     (0)  
   NaCO3-          4.013e-09   3.864e-09    -8.397    -8.413    -0.016     -1.26
   FeCO3           3.362e-09   3.363e-09    -8.473    -8.473     0.000     (0)  
   (CO2)2          8.972e-11   8.974e-11   -10.047   -10.047     0.000     68.63
Ca            2.115e-04
   Ca+2            2.096e-04   1.805e-04    -3.679    -3.743    -0.065    -18.16
   CaHCO3+         1.440e-06   1.388e-06    -5.842    -5.858    -0.016      9.58
   CaSO4           2.130e-07   2.131e-07    -6.672    -6.671     0.000      7.41
   CaCO3           1.614e-07   1.614e-07    -6.792    -6.792     0.000    -14.61
   CaOH+           6.209e-10   5.978e-10    -9.207    -9.223    -0.016     (0)  
   CaHSO4+         7.049e-14   6.787e-14   -13.152   -13.168    -0.016     (0)  
Fe(2)         3.132e-07
   Fe+2            2.918e-07   2.515e-07    -6.535    -6.599    -0.064    -22.28
   FeHCO3+         1.636e-08   1.575e-08    -7.786    -7.803    -0.016     (0)  
   FeCO3           3.362e-09   3.363e-09    -8.473    -8.473     0.000     (0)  
   FeOH+           1.375e-09   1.325e-09    -8.862    -8.878    -0.016     (0)  
   FeSO4           2.892e-10   2.892e-10    -9.539    -9.539     0.000     21.57
   Fe(OH)2         1.822e-13   1.823e-13   -12.739   -12.739     0.000     (0)  
   Fe(OH)3-        1.370e-16   1.319e-16   -15.863   -15.880    -0.016     (0)  
   FeHSO4+         9.821e-17   9.456e-17   -16.008   -16.024    -0.016     (0)  
Fe(3)         7.613e-07
   Fe(OH)3         5.192e-07   5.194e-07    -6.285    -6.285     0.000     (0)  
   Fe(OH)2+        2.331e-07   2.245e-07    -6.632    -6.649    -0.016     (0)  
   Fe(OH)4-        8.901e-09   8.575e-09    -8.051    -8.067    -0.016     (0)  
   FeOH+2          4.328e-11   3.725e-11   -10.364   -10.429    -0.065     (0)  
   Fe+3            4.609e-16   3.335e-16   -15.336   -15.477    -0.141     (0)  
   FeSO4+          2.432e-17   2.342e-17   -16.614   -16.630    -0.016     (0)  
   Fe2(OH)2+4      7.566e-20   4.128e-20   -19.121   -19.384    -0.263     (0)  
   Fe(SO4)2-       3.563e-21   3.430e-21   -20.448   -20.465    -0.016     (0)  
   Fe3(OH)4+5      6.239e-24   2.421e-24   -23.205   -23.616    -0.411     (0)  
   FeHSO4+2        3.664e-24   3.149e-24   -23.436   -23.502    -0.066     (0)  
H(0)          1.450e-26
   H2              7.250e-27   7.252e-27   -26.140   -26.140     0.000     28.61
K             4.665e-05
   K+              4.665e-05   4.491e-05    -4.331    -4.348    -0.017      8.93
   KSO4-           2.122e-09   2.044e-09    -8.673    -8.689    -0.016     34.04
Mg            6.228e-05
   Mg+2            6.177e-05   5.324e-05    -4.209    -4.274    -0.065    -21.73
   MgHCO3+         4.010e-07   3.861e-07    -6.397    -6.413    -0.016      5.41
   MgSO4           7.923e-08   7.925e-08    -7.101    -7.101     0.000      5.74
   MgCO3           2.728e-08   2.729e-08    -7.564    -7.564     0.000    -17.09
   MgOH+           3.216e-09   3.100e-09    -8.493    -8.509    -0.016     (0)  
N(5)          2.613e-05
   NO3-            2.613e-05   2.515e-05    -4.583    -4.599    -0.017     29.26
Na            4.370e-04
   Na+             4.368e-04   4.207e-04    -3.360    -3.376    -0.016     -1.61
   NaHCO3          1.501e-07   1.502e-07    -6.824    -6.823     0.000      1.80
   NaSO4-          1.457e-08   1.403e-08    -7.837    -7.853    -0.016     13.82
   NaCO3-          4.013e-09   3.864e-09    -8.397    -8.413    -0.016     -1.26
   NaOH            7.057e-21   7.059e-21   -20.151   -20.151     0.000     (0)  
O(0)          0.000e+00
   O2              0.000e+00   0.000e+00   -40.882   -40.882     0.000     30.21
S(6)          8.162e-06
   SO4-2           7.852e-06   6.758e-06    -5.105    -5.170    -0.065     14.20
   CaSO4           2.130e-07   2.131e-07    -6.672    -6.671     0.000      7.41
   MgSO4           7.923e-08   7.925e-08    -7.101    -7.101     0.000      5.74
   NaSO4-          1.457e-08   1.403e-08    -7.837    -7.853    -0.016     13.82
   KSO4-           2.122e-09   2.044e-09    -8.673    -8.689    -0.016     34.04
   FeSO4           2.892e-10   2.892e-10    -9.539    -9.539     0.000     21.57
   HSO4-           3.247e-11   3.127e-11   -10.488   -10.505    -0.016     40.11
   CaHSO4+         7.049e-14   6.787e-14   -13.152   -13.168    -0.016     (0)  
   AlSO4+          6.401e-14   6.164e-14   -13.194   -13.210    -0.016     (0)  
   FeHSO4+         9.821e-17   9.456e-17   -16.008   -16.024    -0.016     (0)  
   FeSO4+          2.432e-17   2.342e-17   -16.614   -16.630    -0.016     (0)  
   Al(SO4)2-       1.353e-17   1.303e-17   -16.869   -16.885    -0.016     (0)  
   Fe(SO4)2-       3.563e-21   3.430e-21   -20.448   -20.465    -0.016     (0)  
   AlHSO4+2        3.123e-22   2.684e-22   -21.505   -21.571    -0.066     (0)  
   FeHSO4+2        3.664e-24   3.149e-24   -23.436   -23.502    -0.066     (0)  
Si            4.161e-07
   H4SiO4          4.149e-07   4.151e-07    -6.382    -6.382     0.000     52.29
   H3SiO4-         1.165e-09   1.122e-09    -8.934    -8.950    -0.016     27.91
   H2SiO4-2        1.509e-15   1.299e-15   -14.821   -14.886    -0.065     (0)  

------------------------------Saturation indices-------------------------------

  Phase               SI** log IAP   log K(295 K,   1 atm)

  Al(OH)3(a)       -0.58     10.37   10.96  Al(OH)3
  Albite           -9.61    -27.76  -18.16  NaAlSi3O8
  Alunite          -4.37     -5.47   -1.10  KAl3(SO4)2(OH)6
  Anhydrite        -4.66     -8.91   -4.25  CaSO4
  Anorthite        -7.21    -26.99  -19.78  CaAl2Si2O8
  Aragonite        -1.68    -10.00   -8.32  CaCO3
  Ca-Montmorillonite  -5.48    -50.86  -45.37  Ca0.165Al2.33Si3.67O10(OH)2
  Calcite          -1.53    -10.00   -8.47  CaCO3
  CH2O            -50.14    -50.14    0.00  CH2O
  Chalcedony       -2.80     -6.38   -3.58  SiO2
  Chlorite(14A)   -16.05     53.23   69.28  Mg5Al2Si3O10(OH)8
  Chrysotile      -14.29     18.21   32.50  Mg3Si2O5(OH)4
  CO2(g)           -2.70     -4.14   -1.44  CO2
  Dolomite         -3.49    -20.53  -17.03  CaMg(CO3)2
  Fe(OH)3(a)        1.53      6.42    4.89  Fe(OH)3
  Gibbsite          2.13     10.37    8.25  Al(OH)3
  Goethite          7.34      6.42   -0.91  FeOOH
  Gypsum           -4.33     -8.91   -4.58  CaSO4:2H2O
  H2(g)           -23.04    -26.14   -3.10  H2
  H2O(g)           -1.57     -0.00    1.56  H2O
  Hematite         16.67     12.85   -3.82  Fe2O3
  Illite           -6.24    -46.83  -40.59  K0.6Mg0.25Al2.3Si3.5O10(OH)2
  Jarosite-K       -8.30    -17.32   -9.02  KFe3(SO4)2(OH)6
  K-feldspar       -7.98    -28.74  -20.76  KAlSi3O8
  K-mica            1.87     14.93   13.06  KAl3Si3O10(OH)2
  Kaolinite         0.34      7.98    7.64  Al2Si2O5(OH)4
  Melanterite      -9.53    -11.77   -2.24  FeSO4:7H2O
  O2(g)           -38.01    -40.88   -2.87  O2
  Quartz           -2.37     -6.38   -4.02  SiO2
  Sepiolite       -14.32      1.51   15.82  Mg2Si3O7.5OH:3H2O
  Sepiolite(d)    -17.15      1.51   18.66  Mg2Si3O7.5OH:3H2O
  Siderite         -1.98    -12.85  -10.88  FeCO3
  SiO2(a)          -3.65     -6.38   -2.73  SiO2
  Talc            -16.22      5.45   21.67  Mg3Si4O10(OH)2

**For a gas, SI = log10(fugacity). Fugacity = pressure * phi / 1 atm.
  For ideal gases, phi = 1.

---------------------------------------------
Beginning of inverse modeling 1 calculations.
---------------------------------------------

Using Cl1 standard precision optimization routine.
ERROR: Not possible to balance solution 31 with input uncertainties.
ERROR: Not possible to balance solution 6 with input uncertainties.
ERROR: Calculations terminating.
-------------------------------
End of Run after 0.088 Seconds.
-------------------------------

