   Input file: C:\Users\wdn266\Dropbox\CR\netpathz\tophreeqc_test1.pqi
  Output file: C:\Users\wdn266\Dropbox\CR\netpathz\tophreeqc_test1.pqo
Database file: C:\Program Files (x86)\USGS\Phreeqc Interactive 3.6.2-15100\database\phreeqc.dat

------------------
Reading data base.
------------------

	SOLUTION_MASTER_SPECIES
	SOLUTION_SPECIES
	PHASES
	EXCHANGE_MASTER_SPECIES
	EXCHANGE_SPECIES
	SURFACE_MASTER_SPECIES
	SURFACE_SPECIES
	RATES
	END
------------------------------------
Reading input data for simulation 1.
------------------------------------

	DATABASE C:\Program Files (x86)\USGS\Phreeqc Interactive 3.6.2-15100\database\phreeqc.dat
	SOLUTION_SPREAD
	 Number	 Description	 Units	 Redox	   Temp	    pH	     pe	     Ca	    Mg	     Na	     K	   Alkalinity	    Fe	  N(5)	 14C	 3H	 15N(0)	 15N(5)	 15N(-3)	 15N(3)	 Density
	      	            	      	      	       	      	       	  as Ca	 as Mg	  as Na	  as K	 gfw 50.04289	 as Fe	  as N	    	   	       	       	        	       	        
	      1	        DS01	  mg/l	    pe	 22.200	 7.400	  8.068	 10.464	 2.051	  7.240	 3.136	       37.563	      	 0.126	    	   	       	       	        	       	        
	      2	        DS02	  mg/l	    pe	 22.200	 7.400	  8.068	  9.761	 1.946	  8.764	 2.609	       36.250	      	 0.304	    	   	       	       	        	       	        
	      3	        DS03	  mg/l	    pe	 22.200	 7.400	  8.068	  9.863	 1.978	  7.047	 2.568	       46.420	      	 0.262	    	   	       	       	        	       	        
	      4	        DS09	  mg/l	    pe	 22.100	 7.600	  6.903	  9.470	 1.883	  8.291	 2.487	       34.446	      	 0.242	    	   	       	       	        	       	        
	      5	        DS10	  mg/l	    pe	 22.100	 7.600	  6.903	  9.891	 1.978	  6.608	 3.135	       36.250	 0.017	 0.245	    	   	       	       	        	       	        
	      6	        DS11	  mg/l	    pe	 22.000	 7.500	  7.100	  6.970	 1.300	 13.446	 1.457	       27.229	 0.259	 0.255	    	   	       	       	        	       	        
	      7	        DS12	  mg/l	    pe	 21.900	 7.500	  7.502	  9.711	 1.950	  8.642	 2.987	       35.594	 0.028	 0.276	    	   	       	       	        	       	        
	      8	        DS13	  mg/l	    pe	 22.000	 7.500	  8.068	  9.798	 1.918	  5.722	 2.658	       38.383	 0.016	 0.272	    	   	       	       	        	       	        
	      9	        DS14	  mg/l	    pe	 22.000	 7.600	  8.215	  9.885	 1.938	  5.737	 2.863	       39.367	 0.003	 0.200	    	   	       	       	        	       	        
	     10	        DS15	  mg/l	    pe	 22.000	 7.600	  8.351	 10.249	 2.064	  9.245	 2.979	       38.711	 0.002	 0.200	    	   	       	       	        	       	        
	     11	        DS16	  mg/l	    pe	 22.000	 7.600	  8.431	 10.127	 2.025	  9.151	 2.866	       39.367	 0.002	 0.286	    	   	       	       	        	       	        
	     12	        DS17	  mg/l	    pe	 21.900	 7.600	  8.546	 10.217	 1.994	 10.322	 2.262	       42.647	 0.007	 0.172	    	   	       	       	        	       	        
	     13	        DS18	  mg/l	    pe	 21.900	 7.600	  8.558	 10.026	 1.971	  9.198	 2.340	       37.727	 0.006	 0.200	    	   	       	       	        	       	        
	     14	        DS19	  mg/l	    pe	 21.800	 7.500	  8.554	 10.163	 2.002	  9.382	 2.364	       38.219	 0.006	 0.150	    	   	       	       	        	       	        
	     15	        DS20	  mg/l	    pe	 21.900	 7.600	  8.593	  9.729	 1.918	 12.107	 1.767	       39.695	 0.008	 0.328	    	   	       	       	        	       	        
	     16	        DS21	  mg/l	    pe	 22.000	 7.600	  8.615	 10.315	 2.010	  8.684	 2.540	       39.859	 0.006	 0.305	    	   	       	       	        	       	        
	     17	        DS22	  mg/l	    pe	 22.000	 7.600	  8.414	  9.954	 1.976	 12.647	 1.937	       28.541	 0.005	 0.285	    	   	       	       	        	       	        
	     18	        DS23	  mg/l	    pe	 22.100	 7.600	  8.732	 10.439	 2.064	  9.154	 2.853	       41.499	 0.006	 0.317	    	   	       	       	        	       	        
	     19	        DS24	  mg/l	    pe	 22.000	 7.600	  8.758	 10.126	 1.974	  8.424	 2.498	       37.891	 0.008	 0.288	    	   	       	       	        	       	        
	     20	        DS25	  mg/l	    pe	 22.000	 7.600	  8.414	 10.293	 2.037	  9.263	 3.001	       37.891	 0.007	 0.320	    	   	       	       	        	       	        
	     21	        US01	  mg/l	    pe	 22.000	 6.100	  8.729	 10.862	 2.109	  7.472	 2.800	       33.954	      	 0.272	    	   	       	       	        	       	        
	     22	        US02	  mg/l	    pe	 21.900	 7.000	  9.458	 10.779	 2.108	  7.632	 3.437	       40.023	      	 0.078	    	   	       	       	        	       	        
	     23	        US03	  mg/l	    pe	 21.900	 7.000	  9.254	  9.679	 1.923	  6.409	 3.272	       41.335	      	 0.299	    	   	       	       	        	       	        
	     24	        US04	  mg/l	    pe	 21.900	 7.100	  9.525	  9.688	 1.910	  6.475	 3.119	       41.007	      	 0.272	    	   	       	       	        	       	        
	     25	        US05	  mg/l	    pe	 21.900	 7.100	  9.610	  9.921	 1.926	  8.604	 2.384	       49.865	      	 0.360	    	   	       	       	        	       	        
	     26	        US06	  mg/l	    pe	 21.900	 7.100	  9.683	 10.502	 2.004	  9.508	 3.053	       38.875	      	 0.345	    	   	       	       	        	       	        
	     27	        US07	  mg/l	    pe	 21.900	 7.100	  9.720	  9.848	 1.919	 10.427	 1.972	       39.859	      	 0.367	    	   	       	       	        	       	        
	     28	        US08	  mg/l	    pe	 21.900	 7.100	  9.751	 10.164	 2.015	  8.398	 2.767	       88.575	      	 0.343	    	   	       	       	        	       	        
	     29	        US09	  mg/l	    pe	 21.900	 7.100	  9.715	 10.294	 2.046	  9.522	 2.780	       34.282	 0.007	 0.276	    	   	       	       	        	       	        
	     30	        US10	  mg/l	    pe	 21.900	 7.100	  9.715	 10.364	 2.067	  8.940	 3.069	       36.250	 0.003	 0.266	    	   	       	       	        	       	        
	     31	        US11	  mg/l	    pe	 21.900	 7.000	  9.744	  9.111	 1.785	  9.419	 3.147	       36.250	 0.013	 0.338	    	   	       	       	        	       	        
	     32	        US12	  mg/l	    pe	 21.800	 7.100	  9.790	 10.462	 2.077	  7.061	 3.137	       36.906	 0.002	 0.295	    	   	       	       	        	       	        
	     33	        US13	  mg/l	    pe	 21.900	 7.000	  9.666	 10.575	 2.123	  9.609	 3.317	       38.219	 0.010	 0.283	    	   	       	       	        	       	        
	     34	        US14	  mg/l	    pe	 21.900	 7.000	  9.780	 10.596	 2.138	 10.504	 3.204	       42.483	 0.005	 0.354	    	   	       	       	        	       	        
	     35	        US15	  mg/l	    pe	 21.800	 7.000	  9.819	 10.682	 2.153	  9.959	 3.246	       40.351	 0.002	 0.304	    	   	       	       	        	       	        
	     36	        US16	  mg/l	    pe	 21.900	 7.000	  9.842	 10.066	 1.996	  8.056	 2.684	       40.679	 0.005	 0.308	    	   	       	       	        	       	        
	     37	        US17	  mg/l	    pe	 21.800	 7.100	  9.853	 10.781	 2.136	  9.194	 3.429	       40.843	 0.004	 0.259	    	   	       	       	        	       	        
	     38	        US18	  mg/l	    pe	 21.800	 7.100	  9.854	 10.685	 2.078	  8.780	 2.678	       41.827	 0.004	 0.244	    	   	       	       	        	       	        
	     39	        US19	  mg/l	    pe	 21.800	 7.000	  9.900	 10.485	 2.075	  9.112	 2.542	       40.679	 0.004	 0.362	    	   	       	       	        	       	        
	     40	        US20	  mg/l	    pe	 21.800	 7.100	  9.898	 10.761	 2.119	 10.331	 2.733	       42.319	 0.004	 0.236	    	   	       	       	        	       	        
	     41	        US21	  mg/l	    pe	 21.800	 7.100	  9.897	 10.498	 2.074	 12.315	 2.152	       41.663	 0.004	 0.408	    	   	       	       	        	       	        
	     42	        US22	  mg/l	    pe	 21.900	 7.000	  9.842	 10.869	 2.124	  8.973	 2.916	       42.975	 0.007	 0.285	    	   	       	       	        	       	        
	     43	        US23	  mg/l	    pe	 21.900	 7.000	  9.856	 10.979	 2.158	  9.470	 3.069	       41.499	 0.006	 0.369	    	   	       	       	        	       	        
	     44	        US24	  mg/l	    pe	 21.900	 7.100	  9.863	 10.872	 2.136	  9.337	 3.092	       40.515	 0.004	 0.347	    	   	       	       	        	       	        
	     45	        US25	  mg/l	    pe	 21.900	 7.100	  9.888	 10.832	 2.164	  9.334	 3.173	       43.304	 0.004	 0.338	    	   	       	       	        	       	        
	     46	          W0	  mg/l	    pe	 22.400	 5.300	  7.000	  1.835	 0.309	  2.277	 0.447	        3.773	 0.001	 0.029	    	   	       	       	        	       	        
	     47	          W2	  mg/l	    pe	 22.200	 4.000	  9.356	 10.213	 1.963	  6.635	 2.851	       40.843	 0.031	 0.475	    	   	       	       	        	       	        
	     48	          W3	  mg/l	    pe	 23.000	 5.700	  9.525	  8.582	 1.320	  3.845	 1.522	       23.374	 2.594	      	    	   	       	       	        	       	        
	     49	          W5	  mg/l	    pe	 22.300	 6.600	  7.051	 10.565	 1.807	  6.294	 2.437	       36.168	 0.088	 0.211	    	   	       	       	        	       	        
	     50	          R1	  mg/l	    pe	 23.700	 5.030	 10.520	  0.299	 0.076	  5.169	 0.109	        0.000	 0.011	 0.242	    	   	       	       	        	       	        
	     51	          R2	  mg/l	    pe	 23.700	 5.030	 10.520	  0.225	 0.045	  2.519	 0.142	        0.000	      	 0.164	    	   	       	       	        	       	        
	     52	       SPBOX	  mg/l	    pe	 22.300	 7.350	  8.705	  6.015	 1.061	  5.907	 2.441	       29.443	      	 0.581	    	   	       	       	        	       	        
	     53	        USUP	  mg/l	    pe	 22.600	 7.300	  8.705	  8.475	 1.514	 10.046	 1.824	       33.954	 0.060	 0.366	    	   	       	       	        	       	        
	INVERSE_MODELING 1
	    solutions      31       6
	    uncertainty    0.2      0.2
	    phases
	        CO2(g)
	        NH3(g)
	        N2(g)
	        CH2O
	        Kaolinite
	        K-feldspar
	        K-mica
	        Fe(OH)3(a)
	        Goethite
	    balances
	        C           0.2      0.2
	        N           0.2      0.2
	        Ca          0.2      0.2
	        Mg          0.2      0.2
	        Alkalinity  0.2      0.2
	        Cl          0.2      0.2
	        Na          0.2      0.2
	        S(6)        0.2      0.2
	    tolerance         1e-10
	    uncertainty_water 0.1
	    mineral_water     true
	    lon_netpath netpath
	    pat_netpath netpath
	PHASES
	CH2O
	    CH2O + H2O = CO2 + 4H+ + 4e-
	    log_k     0
	CH2O
	    CH2O + 0.8NO3- = 0.4N2 + 0.8HCO3- +0.2CO2 + 0.6H2O
	    log_k     0
	END
-------------------------------------------
Beginning of initial solution calculations.
-------------------------------------------

Initial solution 1.	 DS01 

-----------------------------Solution composition------------------------------

	Elements           Molality       Moles

	Alkalinity        7.507e-04   7.507e-04
	Ca                2.611e-04   2.611e-04
	K                 8.021e-05   8.021e-05
	Mg                8.437e-05   8.437e-05
	N(5)              8.996e-06   8.996e-06
	Na                3.149e-04   3.149e-04

----------------------------Description of solution----------------------------

                                       pH  =   7.400    
                                       pe  =   8.068    
      Specific Conductance (µS/cm,  22°C)  = 84
                          Density (g/cm³)  =   0.99778
                               Volume (L)  =   1.00230
                        Activity of water  =   1.000
                 Ionic strength (mol/kgw)  =   1.263e-03
                       Mass of water (kg)  =   1.000e+00
                    Total carbon (mol/kg)  =   8.157e-04
                       Total CO2 (mol/kg)  =   8.157e-04
                         Temperature (°C)  =  22.20
                  Electrical balance (eq)  =   3.264e-04
 Percent error, 100*(Cat-|An|)/(Cat+|An|)  =  17.75
                               Iterations  =   8
                                  Total H  = 1.110132e+02
                                  Total O  = 5.550862e+01

----------------------------Distribution of species----------------------------

                                               Log       Log       Log    mole V
   Species          Molality    Activity  Molality  Activity     Gamma   cm³/mol

   OH-             2.131e-07   2.047e-07    -6.671    -6.689    -0.017     -4.22
   H+              4.134e-08   3.981e-08    -7.384    -7.400    -0.016      0.00
   H2O             5.551e+01   1.000e+00     1.744    -0.000     0.000     18.06
C(4)          8.157e-04
   HCO3-           7.452e-04   7.166e-04    -3.128    -3.145    -0.017     24.47
   CO2             6.653e-05   6.655e-05    -4.177    -4.177     0.000     34.30
   CaHCO3+         2.010e-06   1.934e-06    -5.697    -5.714    -0.017      9.57
   CO3-2           9.309e-07   7.962e-07    -6.031    -6.099    -0.068     -5.49
   MgHCO3+         6.178e-07   5.937e-07    -6.209    -6.226    -0.017      5.40
   CaCO3           2.805e-07   2.806e-07    -6.552    -6.552     0.000    -14.61
   NaHCO3          1.239e-07   1.239e-07    -6.907    -6.907     0.000      1.80
   MgCO3           5.212e-08   5.213e-08    -7.283    -7.283     0.000    -17.09
   NaCO3-          4.048e-09   3.891e-09    -8.393    -8.410    -0.017     -1.29
   (CO2)2          7.399e-11   7.401e-11   -10.131   -10.131     0.000     68.59
Ca            2.611e-04
   Ca+2            2.588e-04   2.213e-04    -3.587    -3.655    -0.068    -18.16
   CaHCO3+         2.010e-06   1.934e-06    -5.697    -5.714    -0.017      9.57
   CaCO3           2.805e-07   2.806e-07    -6.552    -6.552     0.000    -14.61
   CaOH+           9.599e-10   9.225e-10    -9.018    -9.035    -0.017     (0)  
H(0)          1.687e-34
   H2              8.435e-35   8.438e-35   -34.074   -34.074     0.000     28.61
K             8.021e-05
   K+              8.021e-05   7.707e-05    -4.096    -4.113    -0.017      8.92
Mg            8.437e-05
   Mg+2            8.369e-05   7.164e-05    -4.077    -4.145    -0.068    -21.71
   MgHCO3+         6.178e-07   5.937e-07    -6.209    -6.226    -0.017      5.40
   MgCO3           5.212e-08   5.213e-08    -7.283    -7.283     0.000    -17.09
   MgOH+           5.261e-09   5.061e-09    -8.279    -8.296    -0.017     (0)  
N(5)          8.996e-06
   NO3-            8.996e-06   8.642e-06    -5.046    -5.063    -0.017     29.22
Na            3.149e-04
   Na+             3.148e-04   3.026e-04    -3.502    -3.519    -0.017     -1.63
   NaHCO3          1.239e-07   1.239e-07    -6.907    -6.907     0.000      1.80
   NaCO3-          4.048e-09   3.891e-09    -8.393    -8.410    -0.017     -1.29
   NaOH            6.194e-21   6.196e-21   -20.208   -20.208     0.000     (0)  
O(0)          1.433e-25
   O2              7.165e-26   7.167e-26   -25.145   -25.145     0.000     30.17

------------------------------Saturation indices-------------------------------

  Phase               SI** log IAP   log K(295 K,   1 atm)

  Aragonite        -1.44     -9.75   -8.32  CaCO3
  Calcite          -1.29     -9.75   -8.46  CaCO3
  CO2(g)           -2.74     -4.18   -1.43  CO2
  Dolomite         -2.97    -20.00  -17.02  CaMg(CO3)2
  H2(g)           -30.98    -34.07   -3.09  H2
  H2O(g)           -1.58     -0.00    1.58  H2O
  O2(g)           -22.27    -25.14   -2.87  O2

**For a gas, SI = log10(fugacity). Fugacity = pressure * phi / 1 atm.
  For ideal gases, phi = 1.

Initial solution 2.	 DS02 

-----------------------------Solution composition------------------------------

	Elements           Molality       Moles

	Alkalinity        7.244e-04   7.244e-04
	Ca                2.436e-04   2.436e-04
	K                 6.673e-05   6.673e-05
	Mg                8.005e-05   8.005e-05
	N(5)              2.171e-05   2.171e-05
	Na                3.812e-04   3.812e-04

----------------------------Description of solution----------------------------

                                       pH  =   7.400    
                                       pe  =   8.068    
      Specific Conductance (µS/cm,  22°C)  = 84
                          Density (g/cm³)  =   0.99778
                               Volume (L)  =   1.00230
                        Activity of water  =   1.000
                 Ionic strength (mol/kgw)  =   1.239e-03
                       Mass of water (kg)  =   1.000e+00
                    Total carbon (mol/kg)  =   7.873e-04
                       Total CO2 (mol/kg)  =   7.873e-04
                         Temperature (°C)  =  22.20
                  Electrical balance (eq)  =   3.490e-04
 Percent error, 100*(Cat-|An|)/(Cat+|An|)  =  19.02
                               Iterations  =   8 (16 overall)
                                  Total H  = 1.110132e+02
                                  Total O  = 5.550858e+01

----------------------------Distribution of species----------------------------

                                               Log       Log       Log    mole V
   Species          Molality    Activity  Molality  Activity     Gamma   cm³/mol

   OH-             2.130e-07   2.047e-07    -6.672    -6.689    -0.017     -4.22
   H+              4.132e-08   3.981e-08    -7.384    -7.400    -0.016      0.00
   H2O             5.551e+01   1.000e+00     1.744    -0.000     0.000     18.06
C(4)          7.873e-04
   HCO3-           7.193e-04   6.920e-04    -3.143    -3.160    -0.017     24.47
   CO2             6.424e-05   6.426e-05    -4.192    -4.192     0.000     34.30
   CaHCO3+         1.813e-06   1.745e-06    -5.742    -5.758    -0.017      9.57
   CO3-2           8.976e-07   7.688e-07    -6.047    -6.114    -0.067     -5.50
   MgHCO3+         5.667e-07   5.448e-07    -6.247    -6.264    -0.017      5.40
   CaCO3           2.531e-07   2.532e-07    -6.597    -6.597     0.000    -14.61
   NaHCO3          1.449e-07   1.449e-07    -6.839    -6.839     0.000      1.80
   MgCO3           4.783e-08   4.784e-08    -7.320    -7.320     0.000    -17.09
   NaCO3-          4.732e-09   4.549e-09    -8.325    -8.342    -0.017     -1.30
   (CO2)2          6.899e-11   6.901e-11   -10.161   -10.161     0.000     68.59
Ca            2.436e-04
   Ca+2            2.415e-04   2.068e-04    -3.617    -3.684    -0.067    -18.16
   CaHCO3+         1.813e-06   1.745e-06    -5.742    -5.758    -0.017      9.57
   CaCO3           2.531e-07   2.532e-07    -6.597    -6.597     0.000    -14.61
   CaOH+           8.966e-10   8.620e-10    -9.047    -9.064    -0.017     (0)  
H(0)          1.687e-34
   H2              8.435e-35   8.438e-35   -34.074   -34.074     0.000     28.61
K             6.673e-05
   K+              6.673e-05   6.414e-05    -4.176    -4.193    -0.017      8.92
Mg            8.005e-05
   Mg+2            7.943e-05   6.808e-05    -4.100    -4.167    -0.067    -21.71
   MgHCO3+         5.667e-07   5.448e-07    -6.247    -6.264    -0.017      5.40
   MgCO3           4.783e-08   4.784e-08    -7.320    -7.320     0.000    -17.09
   MgOH+           4.998e-09   4.810e-09    -8.301    -8.318    -0.017     (0)  
N(5)          2.171e-05
   NO3-            2.171e-05   2.086e-05    -4.663    -4.681    -0.017     29.22
Na            3.812e-04
   Na+             3.811e-04   3.665e-04    -3.419    -3.436    -0.017     -1.63
   NaHCO3          1.449e-07   1.449e-07    -6.839    -6.839     0.000      1.80
   NaCO3-          4.732e-09   4.549e-09    -8.325    -8.342    -0.017     -1.30
   NaOH            7.501e-21   7.503e-21   -20.125   -20.125     0.000     (0)  
O(0)          1.433e-25
   O2              7.165e-26   7.167e-26   -25.145   -25.145     0.000     30.17

------------------------------Saturation indices-------------------------------

  Phase               SI** log IAP   log K(295 K,   1 atm)

  Aragonite        -1.48     -9.80   -8.32  CaCO3
  Calcite          -1.33     -9.80   -8.46  CaCO3
  CO2(g)           -2.76     -4.19   -1.43  CO2
  Dolomite         -3.06    -20.08  -17.02  CaMg(CO3)2
  H2(g)           -30.98    -34.07   -3.09  H2
  H2O(g)           -1.58     -0.00    1.58  H2O
  O2(g)           -22.27    -25.14   -2.87  O2

**For a gas, SI = log10(fugacity). Fugacity = pressure * phi / 1 atm.
  For ideal gases, phi = 1.

Initial solution 3.	 DS03 

-----------------------------Solution composition------------------------------

	Elements           Molality       Moles

	Alkalinity        9.277e-04   9.277e-04
	Ca                2.461e-04   2.461e-04
	K                 6.568e-05   6.568e-05
	Mg                8.136e-05   8.136e-05
	N(5)              1.871e-05   1.871e-05
	Na                3.065e-04   3.065e-04

----------------------------Description of solution----------------------------

                                       pH  =   7.400    
                                       pe  =   8.068    
      Specific Conductance (µS/cm,  22°C)  = 89
                          Density (g/cm³)  =   0.99779
                               Volume (L)  =   1.00230
                        Activity of water  =   1.000
                 Ionic strength (mol/kgw)  =   1.308e-03
                       Mass of water (kg)  =   1.000e+00
                    Total carbon (mol/kg)  =   1.008e-03
                       Total CO2 (mol/kg)  =   1.008e-03
                         Temperature (°C)  =  22.20
                  Electrical balance (eq)  =   8.078e-05
 Percent error, 100*(Cat-|An|)/(Cat+|An|)  =   4.11
                               Iterations  =   7 (23 overall)
                                  Total H  = 1.110134e+02
                                  Total O  = 5.550922e+01

----------------------------Distribution of species----------------------------

                                               Log       Log       Log    mole V
   Species          Molality    Activity  Molality  Activity     Gamma   cm³/mol

   OH-             2.132e-07   2.047e-07    -6.671    -6.689    -0.018     -4.22
   H+              4.136e-08   3.981e-08    -7.383    -7.400    -0.017      0.00
   H2O             5.551e+01   1.000e+00     1.744    -0.000     0.000     18.06
C(4)          1.008e-03
   HCO3-           9.212e-04   8.853e-04    -3.036    -3.053    -0.017     24.47
   CO2             8.219e-05   8.222e-05    -4.085    -4.085     0.000     34.30
   CaHCO3+         2.331e-06   2.241e-06    -5.632    -5.650    -0.017      9.57
   CO3-2           1.153e-06   9.836e-07    -5.938    -6.007    -0.069     -5.49
   MgHCO3+         7.333e-07   7.042e-07    -6.135    -6.152    -0.018      5.40
   CaCO3           3.252e-07   3.252e-07    -6.488    -6.488     0.000    -14.61
   NaHCO3          1.489e-07   1.489e-07    -6.827    -6.827     0.000      1.80
   MgCO3           6.182e-08   6.184e-08    -7.209    -7.209     0.000    -17.09
   NaCO3-          4.867e-09   4.675e-09    -8.313    -8.330    -0.018     -1.29
   (CO2)2          1.129e-10   1.130e-10    -9.947    -9.947     0.000     68.59
Ca            2.461e-04
   Ca+2            2.434e-04   2.076e-04    -3.614    -3.683    -0.069    -18.16
   CaHCO3+         2.331e-06   2.241e-06    -5.632    -5.650    -0.017      9.57
   CaCO3           3.252e-07   3.252e-07    -6.488    -6.488     0.000    -14.61
   CaOH+           9.011e-10   8.655e-10    -9.045    -9.063    -0.018     (0)  
H(0)          1.687e-34
   H2              8.435e-35   8.438e-35   -34.074   -34.074     0.000     28.61
K             6.568e-05
   K+              6.568e-05   6.307e-05    -4.183    -4.200    -0.018      8.92
Mg            8.136e-05
   Mg+2            8.056e-05   6.878e-05    -4.094    -4.163    -0.069    -21.70
   MgHCO3+         7.333e-07   7.042e-07    -6.135    -6.152    -0.018      5.40
   MgCO3           6.182e-08   6.184e-08    -7.209    -7.209     0.000    -17.09
   MgOH+           5.054e-09   4.860e-09    -8.296    -8.313    -0.017     (0)  
N(5)          1.871e-05
   NO3-            1.871e-05   1.796e-05    -4.728    -4.746    -0.018     29.22
Na            3.065e-04
   Na+             3.064e-04   2.944e-04    -3.514    -3.531    -0.017     -1.62
   NaHCO3          1.489e-07   1.489e-07    -6.827    -6.827     0.000      1.80
   NaCO3-          4.867e-09   4.675e-09    -8.313    -8.330    -0.018     -1.29
   NaOH            6.025e-21   6.026e-21   -20.220   -20.220     0.000     (0)  
O(0)          1.433e-25
   O2              7.165e-26   7.167e-26   -25.145   -25.145     0.000     30.17

------------------------------Saturation indices-------------------------------

  Phase               SI** log IAP   log K(295 K,   1 atm)

  Aragonite        -1.37     -9.69   -8.32  CaCO3
  Calcite          -1.23     -9.69   -8.46  CaCO3
  CO2(g)           -2.65     -4.09   -1.43  CO2
  Dolomite         -2.84    -19.86  -17.02  CaMg(CO3)2
  H2(g)           -30.98    -34.07   -3.09  H2
  H2O(g)           -1.58     -0.00    1.58  H2O
  O2(g)           -22.27    -25.14   -2.87  O2

**For a gas, SI = log10(fugacity). Fugacity = pressure * phi / 1 atm.
  For ideal gases, phi = 1.

Initial solution 4.	 DS09 

-----------------------------Solution composition------------------------------

	Elements           Molality       Moles

	Alkalinity        6.884e-04   6.884e-04
	Ca                2.363e-04   2.363e-04
	K                 6.361e-05   6.361e-05
	Mg                7.746e-05   7.746e-05
	N(5)              1.728e-05   1.728e-05
	Na                3.607e-04   3.607e-04

----------------------------Description of solution----------------------------

                                       pH  =   7.600    
                                       pe  =   6.903    
      Specific Conductance (µS/cm,  22°C)  = 80
                          Density (g/cm³)  =   0.99780
                               Volume (L)  =   1.00227
                        Activity of water  =   1.000
                 Ionic strength (mol/kgw)  =   1.188e-03
                       Mass of water (kg)  =   1.000e+00
                    Total carbon (mol/kg)  =   7.248e-04
                       Total CO2 (mol/kg)  =   7.248e-04
                         Temperature (°C)  =  22.10
                  Electrical balance (eq)  =   3.461e-04
 Percent error, 100*(Cat-|An|)/(Cat+|An|)  =  19.77
                               Iterations  =   8 (31 overall)
                                  Total H  = 1.110131e+02
                                  Total O  = 5.550840e+01

----------------------------Distribution of species----------------------------

                                               Log       Log       Log    mole V
   Species          Molality    Activity  Molality  Activity     Gamma   cm³/mol

   OH-             3.347e-07   3.219e-07    -6.475    -6.492    -0.017     -4.22
   H+              2.605e-08   2.512e-08    -7.584    -7.600    -0.016      0.00
   H2O             5.551e+01   1.000e+00     1.744    -0.000     0.000     18.06
C(4)          7.248e-04
   HCO3-           6.822e-04   6.567e-04    -3.166    -3.183    -0.016     24.46
   CO2             3.853e-05   3.854e-05    -4.414    -4.414     0.000     34.29
   CaHCO3+         1.670e-06   1.608e-06    -5.777    -5.794    -0.016      9.56
   CO3-2           1.343e-06   1.154e-06    -5.872    -5.938    -0.066     -5.51
   MgHCO3+         5.214e-07   5.017e-07    -6.283    -6.300    -0.017      5.40
   CaCO3           3.690e-07   3.691e-07    -6.433    -6.433     0.000    -14.61
   NaHCO3          1.303e-07   1.303e-07    -6.885    -6.885     0.000      1.80
   MgCO3           6.957e-08   6.959e-08    -7.158    -7.157     0.000    -17.09
   NaCO3-          6.684e-09   6.432e-09    -8.175    -8.192    -0.017     -1.31
   (CO2)2          2.472e-11   2.473e-11   -10.607   -10.607     0.000     68.58
Ca            2.363e-04
   Ca+2            2.343e-04   2.012e-04    -3.630    -3.696    -0.066    -18.16
   CaHCO3+         1.670e-06   1.608e-06    -5.777    -5.794    -0.016      9.56
   CaCO3           3.690e-07   3.691e-07    -6.433    -6.433     0.000    -14.61
   CaOH+           1.382e-09   1.329e-09    -8.860    -8.876    -0.017     (0)  
H(0)          1.437e-32
   H2              7.187e-33   7.189e-33   -32.143   -32.143     0.000     28.61
K             6.361e-05
   K+              6.361e-05   6.119e-05    -4.196    -4.213    -0.017      8.91
Mg            7.746e-05
   Mg+2            7.686e-05   6.608e-05    -4.114    -4.180    -0.066    -21.71
   MgHCO3+         5.214e-07   5.017e-07    -6.283    -6.300    -0.017      5.40
   MgCO3           6.957e-08   6.959e-08    -7.158    -7.157     0.000    -17.09
   MgOH+           7.612e-09   7.331e-09    -8.119    -8.135    -0.016     (0)  
N(5)          1.728e-05
   NO3-            1.728e-05   1.662e-05    -4.762    -4.779    -0.017     29.20
Na            3.607e-04
   Na+             3.605e-04   3.470e-04    -3.443    -3.460    -0.017     -1.63
   NaHCO3          1.303e-07   1.303e-07    -6.885    -6.885     0.000      1.80
   NaCO3-          6.684e-09   6.432e-09    -8.175    -8.192    -0.017     -1.31
   NaOH            1.117e-20   1.117e-20   -19.952   -19.952     0.000     (0)  
O(0)          1.830e-29
   O2              9.150e-30   9.153e-30   -29.039   -29.038     0.000     30.17

------------------------------Saturation indices-------------------------------

  Phase               SI** log IAP   log K(295 K,   1 atm)

  Aragonite        -1.32     -9.63   -8.32  CaCO3
  Calcite          -1.17     -9.63   -8.46  CaCO3
  CO2(g)           -2.98     -4.41   -1.43  CO2
  Dolomite         -2.73    -19.75  -17.02  CaMg(CO3)2
  H2(g)           -29.05    -32.14   -3.09  H2
  H2O(g)           -1.58     -0.00    1.58  H2O
  O2(g)           -26.17    -29.04   -2.87  O2

**For a gas, SI = log10(fugacity). Fugacity = pressure * phi / 1 atm.
  For ideal gases, phi = 1.

Initial solution 5.	 DS10 

-----------------------------Solution composition------------------------------

	Elements           Molality       Moles

	Alkalinity        7.244e-04   7.244e-04
	Ca                2.468e-04   2.468e-04
	Fe                3.044e-07   3.044e-07
	K                 8.018e-05   8.018e-05
	Mg                8.136e-05   8.136e-05
	N(5)              1.749e-05   1.749e-05
	Na                2.874e-04   2.874e-04

----------------------------Description of solution----------------------------

                                       pH  =   7.600    
                                       pe  =   6.903    
      Specific Conductance (µS/cm,  22°C)  = 81
                          Density (g/cm³)  =   0.99780
                               Volume (L)  =   1.00227
                        Activity of water  =   1.000
                 Ionic strength (mol/kgw)  =   1.206e-03
                       Mass of water (kg)  =   1.000e+00
                    Total carbon (mol/kg)  =   7.625e-04
                       Total CO2 (mol/kg)  =   7.625e-04
                         Temperature (°C)  =  22.10
                  Electrical balance (eq)  =   2.823e-04
 Percent error, 100*(Cat-|An|)/(Cat+|An|)  =  16.05
                               Iterations  =   8 (39 overall)
                                  Total H  = 1.110132e+02
                                  Total O  = 5.550852e+01

----------------------------Distribution of species----------------------------

                                               Log       Log       Log    mole V
   Species          Molality    Activity  Molality  Activity     Gamma   cm³/mol

   OH-             3.348e-07   3.219e-07    -6.475    -6.492    -0.017     -4.22
   H+              2.606e-08   2.512e-08    -7.584    -7.600    -0.016      0.00
   H2O             5.551e+01   1.000e+00     1.744    -0.000     0.000     18.06
C(4)          7.625e-04
   HCO3-           7.175e-04   6.906e-04    -3.144    -3.161    -0.017     24.46
   CO2             4.051e-05   4.052e-05    -4.392    -4.392     0.000     34.29
   CaHCO3+         1.832e-06   1.764e-06    -5.737    -5.754    -0.016      9.56
   CO3-2           1.414e-06   1.213e-06    -5.850    -5.916    -0.066     -5.51
   MgHCO3+         5.753e-07   5.534e-07    -6.240    -6.257    -0.017      5.40
   CaCO3           4.047e-07   4.048e-07    -6.393    -6.393     0.000    -14.61
   NaHCO3          1.091e-07   1.092e-07    -6.962    -6.962     0.000      1.80
   MgCO3           7.674e-08   7.676e-08    -7.115    -7.115     0.000    -17.09
   NaCO3-          5.602e-09   5.389e-09    -8.252    -8.268    -0.017     -1.31
   (CO2)2          2.734e-11   2.735e-11   -10.563   -10.563     0.000     68.58
   FeHCO3+         2.308e-12   2.220e-12   -11.637   -11.654    -0.017     (0)  
   FeCO3           9.354e-13   9.357e-13   -12.029   -12.029     0.000     (0)  
Ca            2.468e-04
   Ca+2            2.446e-04   2.098e-04    -3.612    -3.678    -0.067    -18.16
   CaHCO3+         1.832e-06   1.764e-06    -5.737    -5.754    -0.016      9.56
   CaCO3           4.047e-07   4.048e-07    -6.393    -6.393     0.000    -14.61
   CaOH+           1.441e-09   1.386e-09    -8.841    -8.858    -0.017     (0)  
Fe(2)         4.100e-11
   Fe+2            3.742e-11   3.215e-11   -10.427   -10.493    -0.066    -22.31
   FeHCO3+         2.308e-12   2.220e-12   -11.637   -11.654    -0.017     (0)  
   FeCO3           9.354e-13   9.357e-13   -12.029   -12.029     0.000     (0)  
   FeOH+           3.379e-13   3.252e-13   -12.471   -12.488    -0.017     (0)  
   Fe(OH)2         8.538e-17   8.540e-17   -16.069   -16.069     0.000     (0)  
   Fe(OH)3-        1.275e-19   1.227e-19   -18.894   -18.911    -0.017     (0)  
Fe(3)         3.044e-07
   Fe(OH)3         2.408e-07   2.409e-07    -6.618    -6.618     0.000     (0)  
   Fe(OH)2+        5.545e-08   5.337e-08    -7.256    -7.273    -0.017     (0)  
   Fe(OH)4-        8.079e-09   7.776e-09    -8.093    -8.109    -0.017     (0)  
   FeOH+2          5.275e-12   4.524e-12   -11.278   -11.344    -0.067     (0)  
   Fe+3            2.913e-17   2.091e-17   -16.536   -16.680    -0.144     (0)  
   Fe2(OH)2+4      1.157e-21   6.218e-22   -20.937   -21.206    -0.270     (0)  
   Fe3(OH)4+5      2.396e-26   9.085e-27   -25.620   -26.042    -0.421     (0)  
H(0)          1.437e-32
   H2              7.187e-33   7.189e-33   -32.143   -32.143     0.000     28.61
K             8.018e-05
   K+              8.018e-05   7.711e-05    -4.096    -4.113    -0.017      8.91
Mg            8.136e-05
   Mg+2            8.070e-05   6.931e-05    -4.093    -4.159    -0.066    -21.70
   MgHCO3+         5.753e-07   5.534e-07    -6.240    -6.257    -0.017      5.40
   MgCO3           7.674e-08   7.676e-08    -7.115    -7.115     0.000    -17.09
   MgOH+           7.986e-09   7.690e-09    -8.098    -8.114    -0.016     (0)  
N(5)          1.749e-05
   NO3-            1.749e-05   1.682e-05    -4.757    -4.774    -0.017     29.20
Na            2.874e-04
   Na+             2.873e-04   2.765e-04    -3.542    -3.558    -0.017     -1.63
   NaHCO3          1.091e-07   1.092e-07    -6.962    -6.962     0.000      1.80
   NaCO3-          5.602e-09   5.389e-09    -8.252    -8.268    -0.017     -1.31
   NaOH            8.898e-21   8.901e-21   -20.051   -20.051     0.000     (0)  
O(0)          1.830e-29
   O2              9.150e-30   9.153e-30   -29.039   -29.038     0.000     30.17

------------------------------Saturation indices-------------------------------

  Phase               SI** log IAP   log K(295 K,   1 atm)

  Aragonite        -1.28     -9.59   -8.32  CaCO3
  Calcite          -1.13     -9.59   -8.46  CaCO3
  CO2(g)           -2.96     -4.39   -1.43  CO2
  Dolomite         -2.65    -19.67  -17.02  CaMg(CO3)2
  Fe(OH)3(a)        1.23      6.12    4.89  Fe(OH)3
  Goethite          7.02      6.12   -0.90  FeOOH
  H2(g)           -29.05    -32.14   -3.09  H2
  H2O(g)           -1.58     -0.00    1.58  H2O
  Hematite         16.03     12.24   -3.79  Fe2O3
  O2(g)           -26.17    -29.04   -2.87  O2
  Siderite         -5.54    -16.41  -10.87  FeCO3

**For a gas, SI = log10(fugacity). Fugacity = pressure * phi / 1 atm.
  For ideal gases, phi = 1.

Initial solution 6.	 DS11 

-----------------------------Solution composition------------------------------

	Elements           Molality       Moles

	Alkalinity        5.441e-04   5.441e-04
	Ca                1.739e-04   1.739e-04
	Fe                4.638e-06   4.638e-06
	K                 3.726e-05   3.726e-05
	Mg                5.347e-05   5.347e-05
	N(5)              1.821e-05   1.821e-05
	Na                5.849e-04   5.849e-04

----------------------------Description of solution----------------------------

                                       pH  =   7.500    
                                       pe  =   7.100    
      Specific Conductance (µS/cm,  22°C)  = 74
                          Density (g/cm³)  =   0.99782
                               Volume (L)  =   1.00225
                        Activity of water  =   1.000
                 Ionic strength (mol/kgw)  =   1.043e-03
                       Mass of water (kg)  =   1.000e+00
                    Total carbon (mol/kg)  =   5.775e-04
                       Total CO2 (mol/kg)  =   5.775e-04
                         Temperature (°C)  =  22.00
                  Electrical balance (eq)  =   5.192e-04
 Percent error, 100*(Cat-|An|)/(Cat+|An|)  =  31.79
                               Iterations  =   8 (47 overall)
                                  Total H  = 1.110130e+02
                                  Total O  = 5.550798e+01

----------------------------Distribution of species----------------------------

                                               Log       Log       Log    mole V
   Species          Molality    Activity  Molality  Activity     Gamma   cm³/mol

   OH-             2.631e-07   2.537e-07    -6.580    -6.596    -0.016     -4.23
   H+              3.273e-08   3.162e-08    -7.485    -7.500    -0.015      0.00
   H2O             5.551e+01   1.000e+00     1.744    -0.000     0.000     18.06
C(4)          5.775e-04
   HCO3-           5.367e-04   5.179e-04    -3.270    -3.286    -0.016     24.45
   CO2             3.830e-05   3.831e-05    -4.417    -4.417     0.000     34.29
   CaHCO3+         9.763e-07   9.423e-07    -6.010    -6.026    -0.015      9.55
   CO3-2           8.319e-07   7.212e-07    -6.080    -6.142    -0.062     -5.53
   MgHCO3+         2.861e-07   2.760e-07    -6.543    -6.559    -0.016      5.39
   CaCO3           1.713e-07   1.714e-07    -6.766    -6.766     0.000    -14.61
   NaHCO3          1.671e-07   1.671e-07    -6.777    -6.777     0.000      1.80
   MgCO3           3.030e-08   3.030e-08    -7.519    -7.519     0.000    -17.09
   NaCO3-          6.741e-09   6.501e-09    -8.171    -8.187    -0.016     -1.32
   FeHCO3+         3.263e-11   3.147e-11   -10.486   -10.502    -0.016     (0)  
   (CO2)2          2.435e-11   2.436e-11   -10.613   -10.613     0.000     68.57
   FeCO3           1.051e-11   1.051e-11   -10.978   -10.978     0.000     (0)  
Ca            1.739e-04
   Ca+2            1.728e-04   1.497e-04    -3.763    -3.825    -0.062    -18.17
   CaHCO3+         9.763e-07   9.423e-07    -6.010    -6.026    -0.015      9.55
   CaCO3           1.713e-07   1.714e-07    -6.766    -6.766     0.000    -14.61
   CaOH+           8.148e-10   7.859e-10    -9.089    -9.105    -0.016     (0)  
Fe(2)         7.486e-10
   Fe+2            7.004e-10   6.077e-10    -9.155    -9.216    -0.062    -22.33
   FeHCO3+         3.263e-11   3.147e-11   -10.486   -10.502    -0.016     (0)  
   FeCO3           1.051e-11   1.051e-11   -10.978   -10.978     0.000     (0)  
   FeOH+           5.023e-12   4.846e-12   -11.299   -11.315    -0.016     (0)  
   Fe(OH)2         1.002e-15   1.002e-15   -14.999   -14.999     0.000     (0)  
   Fe(OH)3-        1.184e-18   1.143e-18   -17.926   -17.942    -0.016     (0)  
Fe(3)         4.637e-06
   Fe(OH)3         3.521e-06   3.522e-06    -5.453    -5.453     0.000     (0)  
   Fe(OH)2+        1.023e-06   9.867e-07    -5.990    -6.006    -0.016     (0)  
   Fe(OH)4-        9.320e-08   8.993e-08    -7.031    -7.046    -0.016     (0)  
   FeOH+2          1.220e-10   1.057e-10    -9.914    -9.976    -0.062     (0)  
   Fe+3            8.439e-16   6.189e-16   -15.074   -15.208    -0.135     (0)  
   Fe2(OH)2+4      6.083e-19   3.409e-19   -18.216   -18.467    -0.251     (0)  
   Fe3(OH)4+5      2.297e-22   9.295e-23   -21.639   -22.032    -0.393     (0)  
H(0)          9.205e-33
   H2              4.603e-33   4.604e-33   -32.337   -32.337     0.000     28.61
K             3.726e-05
   K+              3.726e-05   3.593e-05    -4.429    -4.445    -0.016      8.91
Mg            5.347e-05
   Mg+2            5.315e-05   4.611e-05    -4.274    -4.336    -0.062    -21.71
   MgHCO3+         2.861e-07   2.760e-07    -6.543    -6.559    -0.016      5.39
   MgCO3           3.030e-08   3.030e-08    -7.519    -7.519     0.000    -17.09
   MgOH+           4.171e-09   4.027e-09    -8.380    -8.395    -0.015     (0)  
N(5)          1.821e-05
   NO3-            1.821e-05   1.755e-05    -4.740    -4.756    -0.016     29.19
Na            5.849e-04
   Na+             5.847e-04   5.641e-04    -3.233    -3.249    -0.016     -1.64
   NaHCO3          1.671e-07   1.671e-07    -6.777    -6.777     0.000      1.80
   NaCO3-          6.741e-09   6.501e-09    -8.171    -8.187    -0.016     -1.32
   NaOH            1.431e-20   1.431e-20   -19.844   -19.844     0.000     (0)  
O(0)          4.137e-29
   O2              2.068e-29   2.069e-29   -28.684   -28.684     0.000     30.16

------------------------------Saturation indices-------------------------------

  Phase               SI** log IAP   log K(295 K,   1 atm)

  Aragonite        -1.65     -9.97   -8.32  CaCO3
  Calcite          -1.50     -9.97   -8.46  CaCO3
  CO2(g)           -2.98     -4.42   -1.43  CO2
  Dolomite         -3.43    -20.44  -17.02  CaMg(CO3)2
  Fe(OH)3(a)        2.40      7.29    4.89  Fe(OH)3
  Goethite          8.18      7.29   -0.89  FeOOH
  H2(g)           -29.24    -32.34   -3.09  H2
  H2O(g)           -1.58     -0.00    1.58  H2O
  Hematite         18.36     14.58   -3.78  Fe2O3
  O2(g)           -25.81    -28.68   -2.87  O2
  Siderite         -4.49    -15.36  -10.87  FeCO3

**For a gas, SI = log10(fugacity). Fugacity = pressure * phi / 1 atm.
  For ideal gases, phi = 1.

Initial solution 7.	 DS12 

-----------------------------Solution composition------------------------------

	Elements           Molality       Moles

	Alkalinity        7.113e-04   7.113e-04
	Ca                2.423e-04   2.423e-04
	Fe                5.014e-07   5.014e-07
	K                 7.639e-05   7.639e-05
	Mg                8.021e-05   8.021e-05
	N(5)              1.971e-05   1.971e-05
	Na                3.759e-04   3.759e-04

----------------------------Description of solution----------------------------

                                       pH  =   7.500    
                                       pe  =   7.502    
      Specific Conductance (µS/cm,  22°C)  = 83
                          Density (g/cm³)  =   0.99785
                               Volume (L)  =   1.00223
                        Activity of water  =   1.000
                 Ionic strength (mol/kgw)  =   1.232e-03
                       Mass of water (kg)  =   1.000e+00
                    Total carbon (mol/kg)  =   7.595e-04
                       Total CO2 (mol/kg)  =   7.595e-04
                         Temperature (°C)  =  21.90
                  Electrical balance (eq)  =   3.668e-04
 Percent error, 100*(Cat-|An|)/(Cat+|An|)  =  20.14
                               Iterations  =   8 (55 overall)
                                  Total H  = 1.110131e+02
                                  Total O  = 5.550851e+01

----------------------------Distribution of species----------------------------

                                               Log       Log       Log    mole V
   Species          Molality    Activity  Molality  Activity     Gamma   cm³/mol

   OH-             2.619e-07   2.517e-07    -6.582    -6.599    -0.017     -4.23
   H+              3.282e-08   3.162e-08    -7.484    -7.500    -0.016      0.00
   H2O             5.551e+01   1.000e+00     1.744    -0.000     0.000     18.06
C(4)          7.595e-04
   HCO3-           7.053e-04   6.786e-04    -3.152    -3.168    -0.017     24.45
   CO2             5.025e-05   5.027e-05    -4.299    -4.299     0.000     34.28
   CaHCO3+         1.760e-06   1.694e-06    -5.754    -5.771    -0.017      9.55
   CO3-2           1.100e-06   9.429e-07    -5.958    -6.026    -0.067     -5.53
   MgHCO3+         5.564e-07   5.350e-07    -6.255    -6.272    -0.017      5.39
   CaCO3           3.073e-07   3.074e-07    -6.512    -6.512     0.000    -14.61
   NaHCO3          1.403e-07   1.404e-07    -6.853    -6.853     0.000      1.80
   MgCO3           5.854e-08   5.856e-08    -7.233    -7.232     0.000    -17.09
   NaCO3-          5.635e-09   5.419e-09    -8.249    -8.266    -0.017     -1.33
   (CO2)2          4.178e-11   4.179e-11   -10.379   -10.379     0.000     68.56
   FeHCO3+         1.872e-12   1.800e-12   -11.728   -11.745    -0.017     (0)  
   FeCO3           5.997e-13   5.999e-13   -12.222   -12.222     0.000     (0)  
Ca            2.423e-04
   Ca+2            2.402e-04   2.058e-04    -3.619    -3.687    -0.067    -18.17
   CaHCO3+         1.760e-06   1.694e-06    -5.754    -5.771    -0.017      9.55
   CaCO3           3.073e-07   3.074e-07    -6.512    -6.512     0.000    -14.61
   CaOH+           1.123e-09   1.080e-09    -8.950    -8.967    -0.017     (0)  
Fe(2)         3.361e-11
   Fe+2            3.092e-11   2.652e-11   -10.510   -10.576    -0.067    -22.32
   FeHCO3+         1.872e-12   1.800e-12   -11.728   -11.745    -0.017     (0)  
   FeCO3           5.997e-13   5.999e-13   -12.222   -12.222     0.000     (0)  
   FeOH+           2.182e-13   2.099e-13   -12.661   -12.678    -0.017     (0)  
   Fe(OH)2         4.300e-17   4.301e-17   -16.367   -16.366     0.000     (0)  
   Fe(OH)3-        5.094e-20   4.900e-20   -19.293   -19.310    -0.017     (0)  
Fe(3)         5.014e-07
   Fe(OH)3         3.801e-07   3.802e-07    -6.420    -6.420     0.000     (0)  
   Fe(OH)2+        1.112e-07   1.070e-07    -6.954    -6.971    -0.017     (0)  
   Fe(OH)4-        1.005e-08   9.668e-09    -7.998    -8.015    -0.017     (0)  
   FeOH+2          1.344e-11   1.151e-11   -10.872   -10.939    -0.067     (0)  
   Fe+3            9.468e-17   6.777e-17   -16.024   -16.169    -0.145     (0)  
   Fe2(OH)2+4      7.592e-21   4.056e-21   -20.120   -20.392    -0.272     (0)  
   Fe3(OH)4+5      3.224e-25   1.211e-25   -24.492   -24.917    -0.425     (0)  
H(0)          1.447e-33
   H2              7.235e-34   7.237e-34   -33.141   -33.140     0.000     28.61
K             7.639e-05
   K+              7.639e-05   7.345e-05    -4.117    -4.134    -0.017      8.91
Mg            8.021e-05
   Mg+2            7.959e-05   6.825e-05    -4.099    -4.166    -0.067    -21.70
   MgHCO3+         5.564e-07   5.350e-07    -6.255    -6.272    -0.017      5.39
   MgCO3           5.854e-08   5.856e-08    -7.233    -7.232     0.000    -17.09
   MgOH+           6.135e-09   5.906e-09    -8.212    -8.229    -0.017     (0)  
N(5)          1.971e-05
   NO3-            1.971e-05   1.894e-05    -4.705    -4.723    -0.017     29.18
Na            3.759e-04
   Na+             3.758e-04   3.614e-04    -3.425    -3.442    -0.017     -1.64
   NaHCO3          1.403e-07   1.404e-07    -6.853    -6.853     0.000      1.80
   NaCO3-          5.635e-09   5.419e-09    -8.249    -8.266    -0.017     -1.33
   NaOH            9.096e-21   9.099e-21   -20.041   -20.041     0.000     (0)  
O(0)          1.552e-27
   O2              7.759e-28   7.761e-28   -27.110   -27.110     0.000     30.15

------------------------------Saturation indices-------------------------------

  Phase               SI** log IAP   log K(295 K,   1 atm)

  Aragonite        -1.40     -9.71   -8.32  CaCO3
  Calcite          -1.25     -9.71   -8.46  CaCO3
  CO2(g)           -2.87     -4.30   -1.43  CO2
  Dolomite         -2.89    -19.90  -17.02  CaMg(CO3)2
  Fe(OH)3(a)        1.44      6.33    4.89  Fe(OH)3
  Goethite          7.22      6.33   -0.89  FeOOH
  H2(g)           -30.05    -33.14   -3.09  H2
  H2O(g)           -1.58     -0.00    1.58  H2O
  Hematite         16.43     12.66   -3.77  Fe2O3
  O2(g)           -24.24    -27.11   -2.87  O2
  Siderite         -5.73    -16.60  -10.87  FeCO3

**For a gas, SI = log10(fugacity). Fugacity = pressure * phi / 1 atm.
  For ideal gases, phi = 1.

Initial solution 8.	 DS13 

-----------------------------Solution composition------------------------------

	Elements           Molality       Moles

	Alkalinity        7.670e-04   7.670e-04
	Ca                2.445e-04   2.445e-04
	Fe                2.865e-07   2.865e-07
	K                 6.798e-05   6.798e-05
	Mg                7.890e-05   7.890e-05
	N(5)              1.942e-05   1.942e-05
	Na                2.489e-04   2.489e-04

----------------------------Description of solution----------------------------

                                       pH  =   7.500    
                                       pe  =   8.068    
      Specific Conductance (µS/cm,  22°C)  = 79
                          Density (g/cm³)  =   0.99782
                               Volume (L)  =   1.00225
                        Activity of water  =   1.000
                 Ionic strength (mol/kgw)  =   1.193e-03
                       Mass of water (kg)  =   1.000e+00
                    Total carbon (mol/kg)  =   8.192e-04
                       Total CO2 (mol/kg)  =   8.192e-04
                         Temperature (°C)  =  22.00
                  Electrical balance (eq)  =   1.774e-04
 Percent error, 100*(Cat-|An|)/(Cat+|An|)  =  10.18
                               Iterations  =   8 (63 overall)
                                  Total H  = 1.110132e+02
                                  Total O  = 5.550868e+01

----------------------------Distribution of species----------------------------

                                               Log       Log       Log    mole V
   Species          Molality    Activity  Molality  Activity     Gamma   cm³/mol

   OH-             2.638e-07   2.537e-07    -6.579    -6.596    -0.017     -4.23
   H+              3.280e-08   3.162e-08    -7.484    -7.500    -0.016      0.00
   H2O             5.551e+01   1.000e+00     1.744    -0.000     0.000     18.06
C(4)          8.192e-04
   HCO3-           7.608e-04   7.324e-04    -3.119    -3.135    -0.017     24.45
   CO2             5.416e-05   5.418e-05    -4.266    -4.266     0.000     34.29
   CaHCO3+         1.922e-06   1.851e-06    -5.716    -5.733    -0.016      9.56
   CO3-2           1.188e-06   1.020e-06    -5.925    -5.991    -0.066     -5.52
   MgHCO3+         5.915e-07   5.691e-07    -6.228    -6.245    -0.017      5.39
   CaCO3           3.366e-07   3.366e-07    -6.473    -6.473     0.000    -14.61
   NaHCO3          1.003e-07   1.003e-07    -6.999    -6.999     0.000      1.80
   MgCO3           6.248e-08   6.250e-08    -7.204    -7.204     0.000    -17.09
   NaCO3-          4.057e-09   3.903e-09    -8.392    -8.409    -0.017     -1.32
   (CO2)2          4.870e-11   4.871e-11   -10.312   -10.312     0.000     68.57
   FeHCO3+         3.075e-13   2.959e-13   -12.512   -12.529    -0.017     (0)  
   FeCO3           9.882e-14   9.884e-14   -13.005   -13.005     0.000     (0)  
Ca            2.445e-04
   Ca+2            2.422e-04   2.080e-04    -3.616    -3.682    -0.066    -18.17
   CaHCO3+         1.922e-06   1.851e-06    -5.716    -5.733    -0.016      9.56
   CaCO3           3.366e-07   3.366e-07    -6.473    -6.473     0.000    -14.61
   CaOH+           1.134e-09   1.092e-09    -8.945    -8.962    -0.017     (0)  
Fe(2)         5.139e-12
   Fe+2            4.699e-12   4.040e-12   -11.328   -11.394    -0.066    -22.32
   FeHCO3+         3.075e-13   2.959e-13   -12.512   -12.529    -0.017     (0)  
   FeCO3           9.882e-14   9.884e-14   -13.005   -13.005     0.000     (0)  
   FeOH+           3.347e-14   3.221e-14   -13.475   -13.492    -0.017     (0)  
   Fe(OH)2         6.659e-18   6.661e-18   -17.177   -17.176     0.000     (0)  
   Fe(OH)3-        7.892e-21   7.596e-21   -20.103   -20.119    -0.017     (0)  
Fe(3)         2.865e-07
   Fe(OH)3         2.174e-07   2.175e-07    -6.663    -6.663     0.000     (0)  
   Fe(OH)2+        6.329e-08   6.093e-08    -7.199    -7.215    -0.017     (0)  
   Fe(OH)4-        5.769e-09   5.553e-09    -8.239    -8.255    -0.017     (0)  
   FeOH+2          7.605e-12   6.528e-12   -11.119   -11.185    -0.066     (0)  
   Fe+3            5.314e-17   3.822e-17   -16.275   -16.418    -0.143     (0)  
   Fe2(OH)2+4      2.410e-21   1.300e-21   -20.618   -20.886    -0.268     (0)  
   Fe3(OH)4+5      5.744e-26   2.189e-26   -25.241   -25.660    -0.419     (0)  
H(0)          1.067e-34
   H2              5.333e-35   5.335e-35   -34.273   -34.273     0.000     28.61
K             6.798e-05
   K+              6.798e-05   6.539e-05    -4.168    -4.184    -0.017      8.91
Mg            7.890e-05
   Mg+2            7.824e-05   6.724e-05    -4.107    -4.172    -0.066    -21.70
   MgHCO3+         5.915e-07   5.691e-07    -6.228    -6.245    -0.017      5.39
   MgCO3           6.248e-08   6.250e-08    -7.204    -7.204     0.000    -17.09
   MgOH+           6.097e-09   5.872e-09    -8.215    -8.231    -0.016     (0)  
N(5)          1.942e-05
   NO3-            1.942e-05   1.868e-05    -4.712    -4.729    -0.017     29.19
Na            2.489e-04
   Na+             2.488e-04   2.394e-04    -3.604    -3.621    -0.017     -1.64
   NaHCO3          1.003e-07   1.003e-07    -6.999    -6.999     0.000      1.80
   NaCO3-          4.057e-09   3.903e-09    -8.392    -8.409    -0.017     -1.32
   NaOH            6.074e-21   6.075e-21   -20.217   -20.216     0.000     (0)  
O(0)          3.081e-25
   O2              1.540e-25   1.541e-25   -24.812   -24.812     0.000     30.16

------------------------------Saturation indices-------------------------------

  Phase               SI** log IAP   log K(295 K,   1 atm)

  Aragonite        -1.36     -9.67   -8.32  CaCO3
  Calcite          -1.21     -9.67   -8.46  CaCO3
  CO2(g)           -2.83     -4.27   -1.43  CO2
  Dolomite         -2.82    -19.84  -17.02  CaMg(CO3)2
  Fe(OH)3(a)        1.19      6.08    4.89  Fe(OH)3
  Goethite          6.97      6.08   -0.89  FeOOH
  H2(g)           -31.18    -34.27   -3.09  H2
  H2O(g)           -1.58     -0.00    1.58  H2O
  Hematite         15.94     12.16   -3.78  Fe2O3
  O2(g)           -21.94    -24.81   -2.87  O2
  Siderite         -6.51    -17.39  -10.87  FeCO3

**For a gas, SI = log10(fugacity). Fugacity = pressure * phi / 1 atm.
  For ideal gases, phi = 1.

Initial solution 9.	 DS14 

-----------------------------Solution composition------------------------------

	Elements           Molality       Moles

	Alkalinity        7.867e-04   7.867e-04
	Ca                2.466e-04   2.466e-04
	Fe                5.372e-08   5.372e-08
	K                 7.322e-05   7.322e-05
	Mg                7.972e-05   7.972e-05
	N(5)              1.428e-05   1.428e-05
	Na                2.496e-04   2.496e-04

----------------------------Description of solution----------------------------

                                       pH  =   7.600    
                                       pe  =   8.215    
      Specific Conductance (µS/cm,  22°C)  = 81
                          Density (g/cm³)  =   0.99783
                               Volume (L)  =   1.00225
                        Activity of water  =   1.000
                 Ionic strength (mol/kgw)  =   1.209e-03
                       Mass of water (kg)  =   1.000e+00
                    Total carbon (mol/kg)  =   8.284e-04
                       Total CO2 (mol/kg)  =   8.284e-04
                         Temperature (°C)  =  22.00
                  Electrical balance (eq)  =   1.746e-04
 Percent error, 100*(Cat-|An|)/(Cat+|An|)  =   9.87
                               Iterations  =   8 (71 overall)
                                  Total H  = 1.110132e+02
                                  Total O  = 5.550870e+01

----------------------------Distribution of species----------------------------

                                               Log       Log       Log    mole V
   Species          Molality    Activity  Molality  Activity     Gamma   cm³/mol

   OH-             3.322e-07   3.194e-07    -6.479    -6.496    -0.017     -4.23
   H+              2.606e-08   2.512e-08    -7.584    -7.600    -0.016      0.00
   H2O             5.551e+01   1.000e+00     1.744    -0.000     0.000     18.06
C(4)          8.284e-04
   HCO3-           7.795e-04   7.503e-04    -3.108    -3.125    -0.017     24.45
   CO2             4.407e-05   4.409e-05    -4.356    -4.356     0.000     34.29
   CaHCO3+         1.984e-06   1.910e-06    -5.702    -5.719    -0.017      9.56
   CO3-2           1.533e-06   1.315e-06    -5.814    -5.881    -0.066     -5.52
   MgHCO3+         6.116e-07   5.883e-07    -6.214    -6.230    -0.017      5.39
   CaCO3           4.372e-07   4.373e-07    -6.359    -6.359     0.000    -14.61
   NaHCO3          1.030e-07   1.030e-07    -6.987    -6.987     0.000      1.80
   MgCO3           8.131e-08   8.133e-08    -7.090    -7.090     0.000    -17.09
   NaCO3-          5.245e-09   5.045e-09    -8.280    -8.297    -0.017     -1.32
   (CO2)2          3.225e-11   3.226e-11   -10.492   -10.491     0.000     68.57
   FeHCO3+         2.199e-14   2.115e-14   -13.658   -13.675    -0.017     (0)  
   FeCO3           8.895e-15   8.897e-15   -14.051   -14.051     0.000     (0)  
Ca            2.466e-04
   Ca+2            2.442e-04   2.095e-04    -3.612    -3.679    -0.067    -18.16
   CaHCO3+         1.984e-06   1.910e-06    -5.702    -5.719    -0.017      9.56
   CaCO3           4.372e-07   4.373e-07    -6.359    -6.359     0.000    -14.61
   CaOH+           1.439e-09   1.384e-09    -8.842    -8.859    -0.017     (0)  
Fe(2)         3.621e-13
   Fe+2            3.283e-13   2.820e-13   -12.484   -12.550    -0.066    -22.32
   FeHCO3+         2.199e-14   2.115e-14   -13.658   -13.675    -0.017     (0)  
   FeCO3           8.895e-15   8.897e-15   -14.051   -14.051     0.000     (0)  
   FeOH+           2.941e-15   2.830e-15   -14.531   -14.548    -0.017     (0)  
   Fe(OH)2         7.366e-19   7.368e-19   -18.133   -18.133     0.000     (0)  
   Fe(OH)3-        1.099e-21   1.058e-21   -20.959   -20.976    -0.017     (0)  
Fe(3)         5.372e-08
   Fe(OH)3         4.248e-08   4.249e-08    -7.372    -7.372     0.000     (0)  
   Fe(OH)2+        9.824e-09   9.455e-09    -8.008    -8.024    -0.017     (0)  
   Fe(OH)4-        1.419e-09   1.366e-09    -8.848    -8.865    -0.017     (0)  
   FeOH+2          9.383e-13   8.046e-13   -12.028   -12.094    -0.067     (0)  
   Fe+3            5.213e-18   3.742e-18   -17.283   -17.427    -0.144     (0)  
   Fe2(OH)2+4      3.677e-23   1.975e-23   -22.435   -22.704    -0.270     (0)  
   Fe3(OH)4+5      1.363e-28   5.160e-29   -27.866   -28.287    -0.422     (0)  
H(0)          3.420e-35
   H2              1.710e-35   1.710e-35   -34.767   -34.767     0.000     28.61
K             7.322e-05
   K+              7.322e-05   7.042e-05    -4.135    -4.152    -0.017      8.91
Mg            7.972e-05
   Mg+2            7.902e-05   6.785e-05    -4.102    -4.168    -0.066    -21.70
   MgHCO3+         6.116e-07   5.883e-07    -6.214    -6.230    -0.017      5.39
   MgCO3           8.131e-08   8.133e-08    -7.090    -7.090     0.000    -17.09
   MgOH+           7.747e-09   7.459e-09    -8.111    -8.127    -0.016     (0)  
N(5)          1.428e-05
   NO3-            1.428e-05   1.373e-05    -4.845    -4.862    -0.017     29.19
Na            2.496e-04
   Na+             2.495e-04   2.400e-04    -3.603    -3.620    -0.017     -1.64
   NaHCO3          1.030e-07   1.030e-07    -6.987    -6.987     0.000      1.80
   NaCO3-          5.245e-09   5.045e-09    -8.280    -8.297    -0.017     -1.32
   NaOH            7.664e-21   7.666e-21   -20.116   -20.115     0.000     (0)  
O(0)          2.997e-24
   O2              1.498e-24   1.499e-24   -23.824   -23.824     0.000     30.16

------------------------------Saturation indices-------------------------------

  Phase               SI** log IAP   log K(295 K,   1 atm)

  Aragonite        -1.24     -9.56   -8.32  CaCO3
  Calcite          -1.10     -9.56   -8.46  CaCO3
  CO2(g)           -2.92     -4.36   -1.43  CO2
  Dolomite         -2.59    -19.61  -17.02  CaMg(CO3)2
  Fe(OH)3(a)        0.48      5.37    4.89  Fe(OH)3
  Goethite          6.27      5.37   -0.89  FeOOH
  H2(g)           -31.67    -34.77   -3.09  H2
  H2O(g)           -1.58     -0.00    1.58  H2O
  Hematite         14.52     10.75   -3.78  Fe2O3
  O2(g)           -20.95    -23.82   -2.87  O2
  Siderite         -7.56    -18.43  -10.87  FeCO3

**For a gas, SI = log10(fugacity). Fugacity = pressure * phi / 1 atm.
  For ideal gases, phi = 1.

Initial solution 10.	 DS15 

-----------------------------Solution composition------------------------------

	Elements           Molality       Moles

	Alkalinity        7.736e-04   7.736e-04
	Ca                2.557e-04   2.557e-04
	Fe                3.581e-08   3.581e-08
	K                 7.619e-05   7.619e-05
	Mg                8.490e-05   8.490e-05
	N(5)              1.428e-05   1.428e-05
	Na                4.022e-04   4.022e-04

----------------------------Description of solution----------------------------

                                       pH  =   7.600    
                                       pe  =   8.351    
      Specific Conductance (µS/cm,  22°C)  = 88
                          Density (g/cm³)  =   0.99783
                               Volume (L)  =   1.00225
                        Activity of water  =   1.000
                 Ionic strength (mol/kgw)  =   1.309e-03
                       Mass of water (kg)  =   1.000e+00
                    Total carbon (mol/kg)  =   8.145e-04
                       Total CO2 (mol/kg)  =   8.145e-04
                         Temperature (°C)  =  22.00
                  Electrical balance (eq)  =   3.718e-04
 Percent error, 100*(Cat-|An|)/(Cat+|An|)  =  19.17
                               Iterations  =   8 (79 overall)
                                  Total H  = 1.110132e+02
                                  Total O  = 5.550866e+01

----------------------------Distribution of species----------------------------

                                               Log       Log       Log    mole V
   Species          Molality    Activity  Molality  Activity     Gamma   cm³/mol

   OH-             3.327e-07   3.194e-07    -6.478    -6.496    -0.018     -4.23
   H+              2.610e-08   2.512e-08    -7.583    -7.600    -0.017      0.00
   H2O             5.551e+01   1.000e+00     1.744    -0.000     0.000     18.06
C(4)          8.145e-04
   HCO3-           7.664e-04   7.365e-04    -3.116    -3.133    -0.017     24.46
   CO2             4.326e-05   4.328e-05    -4.364    -4.364     0.000     34.29
   CaHCO3+         2.011e-06   1.933e-06    -5.697    -5.714    -0.017      9.56
   CO3-2           1.514e-06   1.291e-06    -5.820    -5.889    -0.069     -5.51
   MgHCO3+         6.368e-07   6.116e-07    -6.196    -6.214    -0.018      5.39
   CaCO3           4.425e-07   4.426e-07    -6.354    -6.354     0.000    -14.61
   NaHCO3          1.627e-07   1.627e-07    -6.789    -6.789     0.000      1.80
   MgCO3           8.453e-08   8.456e-08    -7.073    -7.073     0.000    -17.09
   NaCO3-          8.298e-09   7.970e-09    -8.081    -8.099    -0.018     -1.31
   (CO2)2          3.107e-11   3.108e-11   -10.508   -10.507     0.000     68.57
   FeHCO3+         1.054e-14   1.012e-14   -13.977   -13.995    -0.018     (0)  
   FeCO3           4.255e-15   4.256e-15   -14.371   -14.371     0.000     (0)  
Ca            2.557e-04
   Ca+2            2.533e-04   2.160e-04    -3.596    -3.666    -0.069    -18.16
   CaHCO3+         2.011e-06   1.933e-06    -5.697    -5.714    -0.017      9.56
   CaCO3           4.425e-07   4.426e-07    -6.354    -6.354     0.000    -14.61
   CaOH+           1.486e-09   1.427e-09    -8.828    -8.846    -0.018     (0)  
Fe(2)         1.771e-13
   Fe+2            1.609e-13   1.374e-13   -12.793   -12.862    -0.069    -22.31
   FeHCO3+         1.054e-14   1.012e-14   -13.977   -13.995    -0.018     (0)  
   FeCO3           4.255e-15   4.256e-15   -14.371   -14.371     0.000     (0)  
   FeOH+           1.435e-15   1.379e-15   -14.843   -14.860    -0.017     (0)  
   Fe(OH)2         3.589e-19   3.590e-19   -18.445   -18.445     0.000     (0)  
   Fe(OH)3-        5.365e-22   5.155e-22   -21.270   -21.288    -0.017     (0)  
Fe(3)         3.581e-08
   Fe(OH)3         2.831e-08   2.832e-08    -7.548    -7.548     0.000     (0)  
   Fe(OH)2+        6.557e-09   6.302e-09    -8.183    -8.201    -0.017     (0)  
   Fe(OH)4-        9.471e-10   9.102e-10    -9.024    -9.041    -0.017     (0)  
   FeOH+2          6.291e-13   5.363e-13   -12.201   -12.271    -0.069     (0)  
   Fe+3            3.517e-18   2.494e-18   -17.454   -17.603    -0.149     (0)  
   Fe2(OH)2+4      1.673e-23   8.773e-24   -22.777   -23.057    -0.280     (0)  
   Fe3(OH)4+5      4.188e-29   1.528e-29   -28.378   -28.816    -0.438     (0)  
H(0)          1.828e-35
   H2              9.141e-36   9.143e-36   -35.039   -35.039     0.000     28.61
K             7.619e-05
   K+              7.619e-05   7.316e-05    -4.118    -4.136    -0.018      8.91
Mg            8.490e-05
   Mg+2            8.417e-05   7.186e-05    -4.075    -4.144    -0.069    -21.70
   MgHCO3+         6.368e-07   6.116e-07    -6.196    -6.214    -0.018      5.39
   MgCO3           8.453e-08   8.456e-08    -7.073    -7.073     0.000    -17.09
   MgOH+           8.216e-09   7.900e-09    -8.085    -8.102    -0.017     (0)  
N(5)          1.428e-05
   NO3-            1.428e-05   1.371e-05    -4.845    -4.863    -0.018     29.20
Na            4.022e-04
   Na+             4.020e-04   3.862e-04    -3.396    -3.413    -0.017     -1.64
   NaHCO3          1.627e-07   1.627e-07    -6.789    -6.789     0.000      1.80
   NaCO3-          8.298e-09   7.970e-09    -8.081    -8.099    -0.018     -1.31
   NaOH            1.233e-20   1.234e-20   -19.909   -19.909     0.000     (0)  
O(0)          1.049e-23
   O2              5.243e-24   5.245e-24   -23.280   -23.280     0.000     30.16

------------------------------Saturation indices-------------------------------

  Phase               SI** log IAP   log K(295 K,   1 atm)

  Aragonite        -1.24     -9.55   -8.32  CaCO3
  Calcite          -1.09     -9.55   -8.46  CaCO3
  CO2(g)           -2.93     -4.36   -1.43  CO2
  Dolomite         -2.57    -19.59  -17.02  CaMg(CO3)2
  Fe(OH)3(a)        0.31      5.20    4.89  Fe(OH)3
  Goethite          6.09      5.20   -0.89  FeOOH
  H2(g)           -31.95    -35.04   -3.09  H2
  H2O(g)           -1.58     -0.00    1.58  H2O
  Hematite         14.17     10.39   -3.78  Fe2O3
  O2(g)           -20.41    -23.28   -2.87  O2
  Siderite         -7.88    -18.75  -10.87  FeCO3

**For a gas, SI = log10(fugacity). Fugacity = pressure * phi / 1 atm.
  For ideal gases, phi = 1.

Initial solution 11.	 DS16 

-----------------------------Solution composition------------------------------

	Elements           Molality       Moles

	Alkalinity        7.867e-04   7.867e-04
	Ca                2.527e-04   2.527e-04
	Fe                3.581e-08   3.581e-08
	K                 7.330e-05   7.330e-05
	Mg                8.330e-05   8.330e-05
	N(5)              2.042e-05   2.042e-05
	Na                3.981e-04   3.981e-04

----------------------------Description of solution----------------------------

                                       pH  =   7.600    
                                       pe  =   8.431    
      Specific Conductance (µS/cm,  22°C)  = 88
                          Density (g/cm³)  =   0.99783
                               Volume (L)  =   1.00225
                        Activity of water  =   1.000
                 Ionic strength (mol/kgw)  =   1.306e-03
                       Mass of water (kg)  =   1.000e+00
                    Total carbon (mol/kg)  =   8.283e-04
                       Total CO2 (mol/kg)  =   8.283e-04
                         Temperature (°C)  =  22.00
                  Electrical balance (eq)  =   3.362e-04
 Percent error, 100*(Cat-|An|)/(Cat+|An|)  =  17.31
                               Iterations  =   8 (87 overall)
                                  Total H  = 1.110132e+02
                                  Total O  = 5.550872e+01

----------------------------Distribution of species----------------------------

                                               Log       Log       Log    mole V
   Species          Molality    Activity  Molality  Activity     Gamma   cm³/mol

   OH-             3.326e-07   3.194e-07    -6.478    -6.496    -0.018     -4.23
   H+              2.610e-08   2.512e-08    -7.583    -7.600    -0.017      0.00
   H2O             5.551e+01   1.000e+00     1.744    -0.000     0.000     18.06
C(4)          8.283e-04
   HCO3-           7.794e-04   7.491e-04    -3.108    -3.125    -0.017     24.46
   CO2             4.400e-05   4.402e-05    -4.357    -4.356     0.000     34.29
   CaHCO3+         2.021e-06   1.943e-06    -5.694    -5.712    -0.017      9.56
   CO3-2           1.539e-06   1.313e-06    -5.813    -5.882    -0.069     -5.51
   MgHCO3+         6.355e-07   6.103e-07    -6.197    -6.214    -0.018      5.39
   CaCO3           4.447e-07   4.448e-07    -6.352    -6.352     0.000    -14.61
   NaHCO3          1.638e-07   1.638e-07    -6.786    -6.786     0.000      1.80
   MgCO3           8.435e-08   8.438e-08    -7.074    -7.074     0.000    -17.09
   NaCO3-          8.353e-09   8.024e-09    -8.078    -8.096    -0.017     -1.31
   (CO2)2          3.214e-11   3.215e-11   -10.493   -10.493     0.000     68.57
   FeHCO3+         8.913e-15   8.561e-15   -14.050   -14.067    -0.017     (0)  
   FeCO3           3.599e-15   3.600e-15   -14.444   -14.444     0.000     (0)  
Ca            2.527e-04
   Ca+2            2.502e-04   2.134e-04    -3.602    -3.671    -0.069    -18.16
   CaHCO3+         2.021e-06   1.943e-06    -5.694    -5.712    -0.017      9.56
   CaCO3           4.447e-07   4.448e-07    -6.352    -6.352     0.000    -14.61
   CaOH+           1.468e-09   1.410e-09    -8.833    -8.851    -0.017     (0)  
Fe(2)         1.475e-13
   Fe+2            1.338e-13   1.143e-13   -12.874   -12.942    -0.068    -22.31
   FeHCO3+         8.913e-15   8.561e-15   -14.050   -14.067    -0.017     (0)  
   FeCO3           3.599e-15   3.600e-15   -14.444   -14.444     0.000     (0)  
   FeOH+           1.194e-15   1.147e-15   -14.923   -14.940    -0.017     (0)  
   Fe(OH)2         2.986e-19   2.986e-19   -18.525   -18.525     0.000     (0)  
   Fe(OH)3-        4.462e-22   4.288e-22   -21.350   -21.368    -0.017     (0)  
Fe(3)         3.581e-08
   Fe(OH)3         2.831e-08   2.832e-08    -7.548    -7.548     0.000     (0)  
   Fe(OH)2+        6.557e-09   6.302e-09    -8.183    -8.201    -0.017     (0)  
   Fe(OH)4-        9.471e-10   9.102e-10    -9.024    -9.041    -0.017     (0)  
   FeOH+2          6.290e-13   5.363e-13   -12.201   -12.271    -0.069     (0)  
   Fe+3            3.516e-18   2.494e-18   -17.454   -17.603    -0.149     (0)  
   Fe2(OH)2+4      1.671e-23   8.773e-24   -22.777   -23.057    -0.280     (0)  
   Fe3(OH)4+5      4.183e-29   1.528e-29   -28.379   -28.816    -0.437     (0)  
H(0)          1.265e-35
   H2              6.324e-36   6.326e-36   -35.199   -35.199     0.000     28.61
K             7.330e-05
   K+              7.330e-05   7.039e-05    -4.135    -4.152    -0.018      8.91
Mg            8.330e-05
   Mg+2            8.257e-05   7.051e-05    -4.083    -4.152    -0.069    -21.70
   MgHCO3+         6.355e-07   6.103e-07    -6.197    -6.214    -0.018      5.39
   MgCO3           8.435e-08   8.438e-08    -7.074    -7.074     0.000    -17.09
   MgOH+           8.061e-09   7.751e-09    -8.094    -8.111    -0.017     (0)  
N(5)          2.042e-05
   NO3-            2.042e-05   1.960e-05    -4.690    -4.708    -0.018     29.20
Na            3.981e-04
   Na+             3.979e-04   3.823e-04    -3.400    -3.418    -0.017     -1.64
   NaHCO3          1.638e-07   1.638e-07    -6.786    -6.786     0.000      1.80
   NaCO3-          8.353e-09   8.024e-09    -8.078    -8.096    -0.017     -1.31
   NaOH            1.221e-20   1.221e-20   -19.913   -19.913     0.000     (0)  
O(0)          2.191e-23
   O2              1.096e-23   1.096e-23   -22.960   -22.960     0.000     30.16

------------------------------Saturation indices-------------------------------

  Phase               SI** log IAP   log K(295 K,   1 atm)

  Aragonite        -1.23     -9.55   -8.32  CaCO3
  Calcite          -1.09     -9.55   -8.46  CaCO3
  CO2(g)           -2.92     -4.36   -1.43  CO2
  Dolomite         -2.57    -19.59  -17.02  CaMg(CO3)2
  Fe(OH)3(a)        0.31      5.20    4.89  Fe(OH)3
  Goethite          6.09      5.20   -0.89  FeOOH
  H2(g)           -32.11    -35.20   -3.09  H2
  H2O(g)           -1.58     -0.00    1.58  H2O
  Hematite         14.17     10.39   -3.78  Fe2O3
  O2(g)           -20.09    -22.96   -2.87  O2
  Siderite         -7.95    -18.82  -10.87  FeCO3

**For a gas, SI = log10(fugacity). Fugacity = pressure * phi / 1 atm.
  For ideal gases, phi = 1.

Initial solution 12.	 DS17 

-----------------------------Solution composition------------------------------

	Elements           Molality       Moles

	Alkalinity        8.523e-04   8.523e-04
	Ca                2.549e-04   2.549e-04
	Fe                1.254e-07   1.254e-07
	K                 5.785e-05   5.785e-05
	Mg                8.202e-05   8.202e-05
	N(5)              1.228e-05   1.228e-05
	Na                4.490e-04   4.490e-04

----------------------------Description of solution----------------------------

                                       pH  =   7.600    
                                       pe  =   8.546    
      Specific Conductance (µS/cm,  22°C)  = 92
                          Density (g/cm³)  =   0.99786
                               Volume (L)  =   1.00223
                        Activity of water  =   1.000
                 Ionic strength (mol/kgw)  =   1.354e-03
                       Mass of water (kg)  =   1.000e+00
                    Total carbon (mol/kg)  =   8.973e-04
                       Total CO2 (mol/kg)  =   8.973e-04
                         Temperature (°C)  =  21.90
                  Electrical balance (eq)  =   3.164e-04
 Percent error, 100*(Cat-|An|)/(Cat+|An|)  =  15.53
                               Iterations  =   8 (95 overall)
                                  Total H  = 1.110133e+02
                                  Total O  = 5.550890e+01

----------------------------Distribution of species----------------------------

                                               Log       Log       Log    mole V
   Species          Molality    Activity  Molality  Activity     Gamma   cm³/mol

   OH-             3.303e-07   3.169e-07    -6.481    -6.499    -0.018     -4.23
   H+              2.611e-08   2.512e-08    -7.583    -7.600    -0.017      0.00
   H2O             5.551e+01   1.000e+00     1.744    -0.000     0.000     18.06
C(4)          8.973e-04
   HCO3-           8.443e-04   8.109e-04    -3.074    -3.091    -0.018     24.45
   CO2             4.770e-05   4.772e-05    -4.321    -4.321     0.000     34.28
   CaHCO3+         2.197e-06   2.111e-06    -5.658    -5.676    -0.017      9.55
   CO3-2           1.667e-06   1.419e-06    -5.778    -5.848    -0.070     -5.52
   MgHCO3+         6.753e-07   6.482e-07    -6.170    -6.188    -0.018      5.39
   CaCO3           4.821e-07   4.822e-07    -6.317    -6.317     0.000    -14.61
   NaHCO3          1.999e-07   2.000e-07    -6.699    -6.699     0.000      1.80
   MgCO3           8.928e-08   8.931e-08    -7.049    -7.049     0.000    -17.09
   NaCO3-          1.013e-08   9.719e-09    -7.995    -8.012    -0.018     -1.32
   (CO2)2          3.764e-11   3.766e-11   -10.424   -10.424     0.000     68.56
   FeHCO3+         2.643e-14   2.537e-14   -13.578   -13.596    -0.018     (0)  
   FeCO3           1.064e-14   1.065e-14   -13.973   -13.973     0.000     (0)  
Ca            2.549e-04
   Ca+2            2.523e-04   2.146e-04    -3.598    -3.668    -0.070    -18.16
   CaHCO3+         2.197e-06   2.111e-06    -5.658    -5.676    -0.017      9.55
   CaCO3           4.821e-07   4.822e-07    -6.317    -6.317     0.000    -14.61
   CaOH+           1.477e-09   1.418e-09    -8.831    -8.848    -0.018     (0)  
Fe(2)         4.076e-13
   Fe+2            3.673e-13   3.129e-13   -12.435   -12.505    -0.070    -22.32
   FeHCO3+         2.643e-14   2.537e-14   -13.578   -13.596    -0.018     (0)  
   FeCO3           1.064e-14   1.065e-14   -13.973   -13.973     0.000     (0)  
   FeOH+           3.246e-15   3.117e-15   -14.489   -14.506    -0.018     (0)  
   Fe(OH)2         8.039e-19   8.042e-19   -18.095   -18.095     0.000     (0)  
   Fe(OH)3-        1.201e-21   1.153e-21   -20.920   -20.938    -0.018     (0)  
Fe(3)         1.254e-07
   Fe(OH)3         9.900e-08   9.903e-08    -7.004    -7.004     0.000     (0)  
   Fe(OH)2+        2.305e-08   2.214e-08    -7.637    -7.655    -0.018     (0)  
   Fe(OH)4-        3.301e-09   3.170e-09    -8.481    -8.499    -0.018     (0)  
   FeOH+2          2.224e-12   1.891e-12   -11.653   -11.723    -0.070     (0)  
   Fe+3            1.254e-17   8.847e-18   -16.902   -17.053    -0.152     (0)  
   Fe2(OH)2+4      2.110e-22   1.096e-22   -21.676   -21.960    -0.285     (0)  
   Fe3(OH)4+5      1.884e-27   6.764e-28   -26.725   -27.170    -0.445     (0)  
H(0)          7.455e-36
   H2              3.727e-36   3.729e-36   -35.429   -35.428     0.000     28.61
K             5.785e-05
   K+              5.785e-05   5.552e-05    -4.238    -4.256    -0.018      8.91
Mg            8.202e-05
   Mg+2            8.125e-05   6.920e-05    -4.090    -4.160    -0.070    -21.69
   MgHCO3+         6.753e-07   6.482e-07    -6.170    -6.188    -0.018      5.39
   MgCO3           8.928e-08   8.931e-08    -7.049    -7.049     0.000    -17.09
   MgOH+           7.844e-09   7.537e-09    -8.105    -8.123    -0.017     (0)  
N(5)          1.228e-05
   NO3-            1.228e-05   1.178e-05    -4.911    -4.929    -0.018     29.19
Na            4.490e-04
[...]

------------------------------Saturation indices-------------------------------

  Phase               SI** log IAP   log K(295 K,   1 atm)

  Aragonite        -2.24    -10.56   -8.32  CaCO3
  Calcite          -2.10    -10.56   -8.47  CaCO3
  CO2(g)           -1.96     -3.39   -1.44  CO2
  Dolomite         -4.65    -21.67  -17.03  CaMg(CO3)2
  Fe(OH)3(a)        1.50      6.39    4.89  Fe(OH)3
  Goethite          7.30      6.39   -0.90  FeOOH
  H2(g)           -27.35    -30.44   -3.09  H2
  H2O(g)           -1.57     -0.00    1.57  H2O
  Hematite         16.59     12.78   -3.80  Fe2O3
  O2(g)           -29.51    -32.38   -2.87  O2
  Siderite         -3.41    -14.29  -10.87  FeCO3

**For a gas, SI = log10(fugacity). Fugacity = pressure * phi / 1 atm.
  For ideal gases, phi = 1.

Initial solution 50.	 R1 

-----------------------------Solution composition------------------------------

	Elements           Molality       Moles

	Ca                7.460e-06   7.460e-06
	Fe                1.970e-07   1.970e-07
	K                 2.788e-06   2.788e-06
	Mg                3.126e-06   3.126e-06
	N(5)              1.728e-05   1.728e-05
	Na                2.248e-04   2.248e-04

----------------------------Description of solution----------------------------

                                       pH  =   5.030    
                                       pe  =  10.520    
      Specific Conductance (µS/cm,  24°C)  = 16
                          Density (g/cm³)  =   0.99738
                               Volume (L)  =   1.00264
                        Activity of water  =   1.000
                 Ionic strength (mol/kgw)  =   1.485e-04
                       Mass of water (kg)  =   1.000e+00
                 Total alkalinity (eq/kg)  =  -9.464e-06
                         Temperature (°C)  =  23.70
                  Electrical balance (eq)  =   2.412e-04
 Percent error, 100*(Cat-|An|)/(Cat+|An|)  =  87.47
                               Iterations  =   3 (373 overall)
                                  Total H  = 1.110124e+02
                                  Total O  = 5.550627e+01

----------------------------Distribution of species----------------------------

                                               Log       Log       Log    mole V
   Species          Molality    Activity  Molality  Activity     Gamma   cm³/mol

   H+              9.462e-06   9.333e-06    -5.024    -5.030    -0.006      0.00
   OH-             9.955e-10   9.815e-10    -9.002    -9.008    -0.006     -4.18
   H2O             5.551e+01   1.000e+00     1.744    -0.000     0.000     18.06
Ca            7.460e-06
   Ca+2            7.460e-06   7.054e-06    -5.127    -5.152    -0.024    -18.22
   CaOH+           1.272e-13   1.254e-13   -12.895   -12.902    -0.006     (0)  
Fe(2)         3.042e-09
   Fe+2            3.042e-09   2.877e-09    -8.517    -8.541    -0.024    -22.28
   FeOH+           8.966e-14   8.842e-14   -13.047   -13.053    -0.006     (0)  
   Fe(OH)2         7.198e-20   7.198e-20   -19.143   -19.143     0.000     (0)  
   Fe(OH)3-        2.869e-25   2.829e-25   -24.542   -24.548    -0.006     (0)  
Fe(3)         1.939e-07
   Fe(OH)2+        1.858e-07   1.832e-07    -6.731    -6.737    -0.006     (0)  
   FeOH+2          5.738e-09   5.426e-09    -8.241    -8.266    -0.024     (0)  
   Fe(OH)3         2.389e-09   2.389e-09    -8.622    -8.622     0.000     (0)  
   Fe+3            9.588e-12   8.469e-12   -11.018   -11.072    -0.054     (0)  
   Fe(OH)4-        2.247e-13   2.215e-13   -12.648   -12.655    -0.006     (0)  
   Fe2(OH)2+4      1.047e-15   8.363e-16   -14.980   -15.078    -0.098     (0)  
   Fe3(OH)4+5      5.131e-20   3.611e-20   -19.290   -19.442    -0.153     (0)  
H(0)          1.139e-34
   H2              5.697e-35   5.697e-35   -34.244   -34.244     0.000     28.61
K             2.788e-06
   K+              2.788e-06   2.749e-06    -5.555    -5.561    -0.006      8.95
Mg            3.126e-06
   Mg+2            3.126e-06   2.956e-06    -5.505    -5.529    -0.024    -21.84
   MgOH+           1.037e-12   1.022e-12   -11.984   -11.990    -0.006     (0)  
N(5)          1.728e-05
   NO3-            1.728e-05   1.704e-05    -4.763    -4.769    -0.006     29.35
Na            2.248e-04
   Na+             2.248e-04   2.217e-04    -3.648    -3.654    -0.006     -1.58
   NaOH            2.176e-23   2.176e-23   -22.662   -22.662     0.000     (0)  
O(0)          9.735e-25
   O2              4.868e-25   4.868e-25   -24.313   -24.313     0.000     30.30

------------------------------Saturation indices-------------------------------

  Phase               SI** log IAP   log K(296 K,   1 atm)

  Fe(OH)3(a)       -0.87      4.02    4.89  Fe(OH)3
  Goethite          4.97      4.02   -0.95  FeOOH
  H2(g)           -31.15    -34.24   -3.10  H2
  H2O(g)           -1.54     -0.00    1.54  H2O
  Hematite         11.94      8.04   -3.91  Fe2O3
  O2(g)           -21.43    -24.31   -2.88  O2

**For a gas, SI = log10(fugacity). Fugacity = pressure * phi / 1 atm.
  For ideal gases, phi = 1.

Initial solution 51.	 R2 

-----------------------------Solution composition------------------------------

	Elements           Molality       Moles

	Ca                5.614e-06   5.614e-06
	K                 3.632e-06   3.632e-06
	Mg                1.851e-06   1.851e-06
	N(5)              1.171e-05   1.171e-05
	Na                1.096e-04   1.096e-04

----------------------------Description of solution----------------------------

                                       pH  =   5.030    
                                       pe  =  10.520    
      Specific Conductance (µS/cm,  24°C)  = 10
                          Density (g/cm³)  =   0.99737
                               Volume (L)  =   1.00264
                        Activity of water  =   1.000
                 Ionic strength (mol/kgw)  =   8.210e-05
                       Mass of water (kg)  =   1.000e+00
                 Total alkalinity (eq/kg)  =  -9.429e-06
                         Temperature (°C)  =  23.70
                  Electrical balance (eq)  =   1.259e-04
 Percent error, 100*(Cat-|An|)/(Cat+|An|)  =  84.31
                               Iterations  =   3 (376 overall)
                                  Total H  = 1.110124e+02
                                  Total O  = 5.550625e+01

----------------------------Distribution of species----------------------------

                                               Log       Log       Log    mole V
   Species          Molality    Activity  Molality  Activity     Gamma   cm³/mol

   H+              9.430e-06   9.333e-06    -5.026    -5.030    -0.004      0.00
   OH-             9.919e-10   9.816e-10    -9.004    -9.008    -0.005     -4.18
   H2O             5.551e+01   1.000e+00     1.744    -0.000     0.000     18.06
Ca            5.614e-06
   Ca+2            5.614e-06   5.384e-06    -5.251    -5.269    -0.018    -18.23
   CaOH+           9.675e-14   9.574e-14   -13.014   -13.019    -0.005     (0)  
H(0)          1.139e-34
   H2              5.697e-35   5.697e-35   -34.244   -34.244     0.000     28.61
K             3.632e-06
   K+              3.632e-06   3.594e-06    -5.440    -5.444    -0.005      8.95
Mg            1.851e-06
   Mg+2            1.851e-06   1.775e-06    -5.733    -5.751    -0.018    -21.85
   MgOH+           6.203e-13   6.138e-13   -12.207   -12.212    -0.005     (0)  
N(5)          1.171e-05
   NO3-            1.171e-05   1.159e-05    -4.931    -4.936    -0.005     29.34
Na            1.096e-04
   Na+             1.096e-04   1.084e-04    -3.960    -3.965    -0.005     -1.58
   NaOH            1.064e-23   1.064e-23   -22.973   -22.973     0.000     (0)  
O(0)          9.735e-25
   O2              4.868e-25   4.868e-25   -24.313   -24.313     0.000     30.30

------------------------------Saturation indices-------------------------------

  Phase               SI** log IAP   log K(296 K,   1 atm)

  H2(g)           -31.15    -34.24   -3.10  H2
  H2O(g)           -1.54     -0.00    1.54  H2O
  O2(g)           -21.43    -24.31   -2.88  O2

**For a gas, SI = log10(fugacity). Fugacity = pressure * phi / 1 atm.
  For ideal gases, phi = 1.

Initial solution 52.	 SPBOX 

-----------------------------Solution composition------------------------------

	Elements           Molality       Moles

	Alkalinity        5.884e-04   5.884e-04
	Ca                1.501e-04   1.501e-04
	K                 6.243e-05   6.243e-05
	Mg                4.364e-05   4.364e-05
	N(5)              4.148e-05   4.148e-05
	Na                2.570e-04   2.570e-04

----------------------------Description of solution----------------------------

                                       pH  =   7.350    
                                       pe  =   8.705    
      Specific Conductance (µS/cm,  22°C)  = 62
                          Density (g/cm³)  =   0.99774
                               Volume (L)  =   1.00232
                        Activity of water  =   1.000
                 Ionic strength (mol/kgw)  =   8.599e-04
                       Mass of water (kg)  =   1.000e+00
                    Total carbon (mol/kg)  =   6.464e-04
                       Total CO2 (mol/kg)  =   6.464e-04
                         Temperature (°C)  =  22.30
                  Electrical balance (eq)  =   7.697e-05
 Percent error, 100*(Cat-|An|)/(Cat+|An|)  =   5.77
                               Iterations  =   8 (384 overall)
                                  Total H  = 1.110130e+02
                                  Total O  = 5.550822e+01

----------------------------Distribution of species----------------------------

                                               Log       Log       Log    mole V
   Species          Molality    Activity  Molality  Activity     Gamma   cm³/mol

   OH-             1.901e-07   1.839e-07    -6.721    -6.735    -0.014     -4.22
   H+              4.610e-08   4.467e-08    -7.336    -7.350    -0.014      0.00
   H2O             5.551e+01   1.000e+00     1.744    -0.000     0.000     18.06
C(4)          6.464e-04
   HCO3-           5.854e-04   5.666e-04    -3.233    -3.247    -0.014     24.47
   CO2             5.895e-05   5.896e-05    -4.230    -4.229     0.000     34.30
   CaHCO3+         9.350e-07   9.052e-07    -6.029    -6.043    -0.014      9.56
   CO3-2           6.406e-07   5.623e-07    -6.193    -6.250    -0.057     -5.51
   MgHCO3+         2.580e-07   2.497e-07    -6.588    -6.603    -0.014      5.40
   CaCO3           1.173e-07   1.173e-07    -6.931    -6.931     0.000    -14.61
   NaHCO3          8.042e-08   8.044e-08    -7.095    -7.095     0.000      1.80
   MgCO3           1.960e-08   1.960e-08    -7.708    -7.708     0.000    -17.09
   NaCO3-          2.345e-09   2.268e-09    -8.630    -8.644    -0.014     -1.29
   (CO2)2          5.827e-11   5.829e-11   -10.235   -10.234     0.000     68.60
Ca            1.501e-04
   Ca+2            1.490e-04   1.308e-04    -3.827    -3.883    -0.057    -18.18
   CaHCO3+         9.350e-07   9.052e-07    -6.029    -6.043    -0.014      9.56
   CaCO3           1.173e-07   1.173e-07    -6.931    -6.931     0.000    -14.61
   CaOH+           5.022e-10   4.859e-10    -9.299    -9.313    -0.014     (0)  
H(0)          1.129e-35
   H2              5.645e-36   5.647e-36   -35.248   -35.248     0.000     28.61
K             6.243e-05
   K+              6.243e-05   6.039e-05    -4.205    -4.219    -0.014      8.92
Mg            4.364e-05
   Mg+2            4.336e-05   3.808e-05    -4.363    -4.419    -0.056    -21.73
   MgHCO3+         2.580e-07   2.497e-07    -6.588    -6.603    -0.014      5.40
   MgCO3           1.960e-08   1.960e-08    -7.708    -7.708     0.000    -17.09
   MgOH+           2.500e-09   2.420e-09    -8.602    -8.616    -0.014     (0)  
N(5)          4.148e-05
   NO3-            4.148e-05   4.012e-05    -4.382    -4.397    -0.014     29.22
Na            2.570e-04
   Na+             2.569e-04   2.486e-04    -3.590    -3.605    -0.014     -1.63
   NaHCO3          8.042e-08   8.044e-08    -7.095    -7.095     0.000      1.80
   NaCO3-          2.345e-09   2.268e-09    -8.630    -8.644    -0.014     -1.29
   NaOH            4.571e-21   4.571e-21   -20.340   -20.340     0.000     (0)  
O(0)          3.452e-23
   O2              1.726e-23   1.726e-23   -22.763   -22.763     0.000     30.18

------------------------------Saturation indices-------------------------------

  Phase               SI** log IAP   log K(295 K,   1 atm)

  Aragonite        -1.81    -10.13   -8.32  CaCO3
  Calcite          -1.67    -10.13   -8.47  CaCO3
  CO2(g)           -2.79     -4.23   -1.44  CO2
  Dolomite         -3.78    -20.80  -17.03  CaMg(CO3)2
  H2(g)           -32.15    -35.25   -3.09  H2
  H2O(g)           -1.57     -0.00    1.57  H2O
  O2(g)           -19.89    -22.76   -2.87  O2

**For a gas, SI = log10(fugacity). Fugacity = pressure * phi / 1 atm.
  For ideal gases, phi = 1.

Initial solution 53.	 USUP 

-----------------------------Solution composition------------------------------

	Elements           Molality       Moles

	Alkalinity        6.785e-04   6.785e-04
	Ca                2.115e-04   2.115e-04
	Fe                1.074e-06   1.074e-06
	K                 4.665e-05   4.665e-05
	Mg                6.228e-05   6.228e-05
	N(5)              2.613e-05   2.613e-05
	Na                4.370e-04   4.370e-04

----------------------------Description of solution----------------------------

                                       pH  =   7.300    
                                       pe  =   8.705    
      Specific Conductance (µS/cm,  23°C)  = 80
                          Density (g/cm³)  =   0.99768
                               Volume (L)  =   1.00239
                        Activity of water  =   1.000
                 Ionic strength (mol/kgw)  =   1.138e-03
                       Mass of water (kg)  =   1.000e+00
                    Total carbon (mol/kg)  =   7.522e-04
                       Total CO2 (mol/kg)  =   7.522e-04
                         Temperature (°C)  =  22.60
                  Electrical balance (eq)  =   3.275e-04
 Percent error, 100*(Cat-|An|)/(Cat+|An|)  =  18.93
                               Iterations  =   7 (391 overall)
                                  Total H  = 1.110131e+02
                                  Total O  = 5.550848e+01

----------------------------Distribution of species----------------------------

                                               Log       Log       Log    mole V
   Species          Molality    Activity  Molality  Activity     Gamma   cm³/mol

   OH-             1.743e-07   1.678e-07    -6.759    -6.775    -0.016     -4.20
   H+              5.195e-08   5.012e-08    -7.284    -7.300    -0.016      0.00
   H2O             5.551e+01   1.000e+00     1.744    -0.000     0.000     18.06
C(4)          7.522e-04
   HCO3-           6.738e-04   6.492e-04    -3.171    -3.188    -0.016     24.50
   CO2             7.546e-05   7.548e-05    -4.122    -4.122     0.000     34.32
   CaHCO3+         1.495e-06   1.441e-06    -5.825    -5.841    -0.016      9.58
   CO3-2           6.707e-07   5.779e-07    -6.173    -6.238    -0.065     -5.46
   MgHCO3+         4.164e-07   4.009e-07    -6.381    -6.397    -0.016      5.41
   CaCO3           1.675e-07   1.676e-07    -6.776    -6.776     0.000    -14.61
   NaHCO3          1.557e-07   1.557e-07    -6.808    -6.808     0.000      1.80
   MgCO3           2.833e-08   2.834e-08    -7.548    -7.548     0.000    -17.09
   NaCO3-          4.162e-09   4.008e-09    -8.381    -8.397    -0.016     -1.26
   (CO2)2          9.648e-11   9.651e-11   -10.016   -10.015     0.000     68.63
   FeHCO3+         7.483e-13   7.205e-13   -12.126   -12.142    -0.016     (0)  
   FeCO3           1.538e-13   1.539e-13   -12.813   -12.813     0.000     (0)  
Ca            2.115e-04
   Ca+2            2.098e-04   1.807e-04    -3.678    -3.743    -0.065    -18.16
   CaHCO3+         1.495e-06   1.441e-06    -5.825    -5.841    -0.016      9.58
   CaCO3           1.675e-07   1.676e-07    -6.776    -6.776     0.000    -14.61
   CaOH+           6.215e-10   5.985e-10    -9.207    -9.223    -0.016     (0)  
Fe(2)         1.383e-11
   Fe+2            1.287e-11   1.110e-11   -10.890   -10.955    -0.064    -22.28
   FeHCO3+         7.483e-13   7.205e-13   -12.126   -12.142    -0.016     (0)  
   FeCO3           1.538e-13   1.539e-13   -12.813   -12.813     0.000     (0)  
   FeOH+           6.067e-14   5.844e-14   -13.217   -13.233    -0.016     (0)  
   Fe(OH)2         8.039e-18   8.041e-18   -17.095   -17.095     0.000     (0)  
   Fe(OH)3-        6.043e-21   5.821e-21   -20.219   -20.235    -0.016     (0)  
Fe(3)         1.074e-06
   Fe(OH)3         7.329e-07   7.330e-07    -6.135    -6.135     0.000     (0)  
   Fe(OH)2+        3.289e-07   3.169e-07    -6.483    -6.499    -0.016     (0)  
   Fe(OH)4-        1.256e-08   1.210e-08    -7.901    -7.917    -0.016     (0)  
   FeOH+2          6.106e-11   5.258e-11   -10.214   -10.279    -0.065     (0)  
   Fe+3            6.500e-16   4.706e-16   -15.187   -15.327    -0.140     (0)  
   Fe2(OH)2+4      1.505e-19   8.223e-20   -18.823   -19.085    -0.262     (0)  
   Fe3(OH)4+5      1.750e-23   6.807e-24   -22.757   -23.167    -0.410     (0)  
H(0)          1.417e-35
   H2              7.085e-36   7.087e-36   -35.150   -35.150     0.000     28.61
K             4.665e-05
   K+              4.665e-05   4.491e-05    -4.331    -4.348    -0.016      8.93
Mg            6.228e-05
   Mg+2            6.183e-05   5.331e-05    -4.209    -4.273    -0.064    -21.73
   MgHCO3+         4.164e-07   4.009e-07    -6.381    -6.397    -0.016      5.41
   MgCO3           2.833e-08   2.834e-08    -7.548    -7.548     0.000    -17.09
   MgOH+           3.220e-09   3.104e-09    -8.492    -8.508    -0.016     (0)  
N(5)          2.613e-05
   NO3-            2.613e-05   2.515e-05    -4.583    -4.599    -0.017     29.26
Na            4.370e-04
   Na+             4.368e-04   4.208e-04    -3.360    -3.376    -0.016     -1.61
   NaHCO3          1.557e-07   1.557e-07    -6.808    -6.808     0.000      1.80
   NaCO3-          4.162e-09   4.008e-09    -8.381    -8.397    -0.016     -1.26
   NaOH            7.058e-21   7.060e-21   -20.151   -20.151     0.000     (0)  
O(0)          2.749e-23
   O2              1.374e-23   1.375e-23   -22.862   -22.862     0.000     30.21

------------------------------Saturation indices-------------------------------

  Phase               SI** log IAP   log K(295 K,   1 atm)

  Aragonite        -1.66     -9.98   -8.32  CaCO3
  Calcite          -1.51     -9.98   -8.47  CaCO3
  CO2(g)           -2.68     -4.12   -1.44  CO2
  Dolomite         -3.46    -20.49  -17.03  CaMg(CO3)2
  Fe(OH)3(a)        1.68      6.57    4.89  Fe(OH)3
  Goethite          7.49      6.57   -0.91  FeOOH
  H2(g)           -32.05    -35.15   -3.10  H2
  H2O(g)           -1.57     -0.00    1.56  H2O
  Hematite         16.97     13.15   -3.82  Fe2O3
  O2(g)           -19.99    -22.86   -2.87  O2
  Siderite         -6.32    -17.19  -10.88  FeCO3

**For a gas, SI = log10(fugacity). Fugacity = pressure * phi / 1 atm.
  For ideal gases, phi = 1.

---------------------------------------------
Beginning of inverse modeling 1 calculations.
---------------------------------------------

Using Cl1 standard precision optimization routine.
ERROR: Not possible to balance solution 6 with input uncertainties.
ERROR: Calculations terminating.
-------------------------------
End of Run after 0.093 Seconds.
-------------------------------

